version 2
run final-0-20201125-15:02:59-9
attr configname final
attr datetime 20201125-15:02:59
attr experiment out
attr inifile omnetpp.ini
attr iterationvars ""
attr iterationvarsf ""
attr measurement ""
attr network rover.simulations.networks.IEEE80211_AdHoc_Vadere
attr processid 9
attr repetition 0
attr replication #0
attr resultdir results
attr runnumber 0
attr seedset 42
param *.manager.vadereScenarioPath "\"vadere/scenarios/simple_detour_100x177_miat1.25.scenario\""
param *.manager.seed 42
param *.manager.useVadereSeed true
param *.station[0].numApps 1
param *.station[0].app[0].typename "\"UdpDetourApp\""
param *.station[0].app[0].incidentTime 100s
param *.station[0].app[0].reason "\"E2002_closed\""
param *.station[0].app[0].closedTarget "\"2002\""
param *.station[0].app[0].alternativeRoute "\"2003,2001\""
param *.station[0].app[0].repeatTime 600s
param *.station[0].app[0].repeateInterval 1s
param *.station[0].app[0].localPort 3000
param *.station[0].app[0].startTime 0s
param *.station[0].app[0].stopTime 300s
param *.station[0].app[0].destAddresses "\"224.0.0.10\""
param *.station[0].app[0].destPort 3000
param *.station[0].app[0].receiveBroadcast true
param *.station[0].app[0].joinLocalMulticastGroups true
param *.station[0].app[0].multicastInterface "\"wlan0\""
param *.station[0].app[0].messageLength 3kB
param *.station[1].numApps 1
param *.station[1].app[0].typename "\"UdpSink\""
param *.station[1].app[0].localPort 5000
param *.hostMobile[*].numApps 2
param *.hostMobile[*].app[0].typename "\"UdpDetourAppVadere\""
param *.hostMobile[*].app[0].localPort 3000
param *.hostMobile[*].app[0].startTime 0s
param *.hostMobile[*].app[0].stopTime 300s
param *.hostMobile[*].app[0].destAddresses "\"224.0.0.10\""
param *.hostMobile[*].app[0].destPort 3000
param *.hostMobile[*].app[0].receiveBroadcast true
param *.hostMobile[*].app[0].joinLocalMulticastGroups true
param *.hostMobile[*].app[0].multicastInterface "\"wlan0\""
param *.hostMobile[*].app[0].notifyMobilityProvider true
param *.hostMobile[*].app[0].messageLength 3kB
param *.hostMobile[*].app[1].typename "\"UdpBasicApp\""
param *.hostMobile[*].app[1].destAddresses "\"station[1]\""
param *.hostMobile[*].app[1].sendInterval "truncnormal(20ms, 1ms)"
param *.hostMobile[*].app[1].destPort 5000
param *.hostMobile[*].app[1].messageLength 3771B
param *.hostMobile[*].app[1].packetName "\"UDPBackground\""
param *.hostMobile[*].app[1].startTime 250s
param *.hostMobile[*].app[1].stopTime 300s
param *.manager.host "\"vadere_Sample__14_0\""
param *.manager.port 9998
param *.manager.moduleType "\"pedestrian=org.car2x.veins.subprojects.veins_inet.VeinsInetPerson\""
param *.manager.moduleName "\"pedestrian=hostMobile\""
param *.manager.margin 0
param *.manager.moduleDisplayString "\"\""
param *.manager.vadereCachePath "\"vadere-cache/veins-test\""
param *.manager.visualizer "\"visualization\""
param *.numMappings 1
param *.mappingDistribution[0].mapping_root "\"pedestrian\""
param *.mappingDistribution[0].mapping_moduleName "\"p1=hostMobile p2=hUeq\""
param *.mappingDistribution[0].mapping_moduleType "\"p1=org.car2x.veins.subprojects.veins_inet.VeinsInetPerson p2=rover.nodes.UnequippedHost\""
param *.mappingDistribution[0].mapping_distribution "\"p1=1.0 p2=0.0\""
param *.physicalEnvironment.config "xmldoc(\"vadere/scenarios/simple_detour_100x177.env.xml\")"
param *.physicalEnvironment.spaceMinX -10m
param *.physicalEnvironment.spaceMinY -10m
param *.physicalEnvironment.spaceMinZ -10m
param *.physicalEnvironment.spaceMaxX 200m
param *.physicalEnvironment.spaceMaxY 150m
param *.physicalEnvironment.spaceMaxZ 100m
param *.numStationary 2
param *.station[0].mobility.initFromDisplayString false
param *.station[0].mobilityType "\"StationaryMobility\""
param *.station[0].mobility.initialX 30m
param *.station[0].mobility.initialY 93.5m
param *.station[1].mobility.initFromDisplayString false
param *.station[1].mobilityType "\"StationaryMobility\""
param *.station[1].mobility.initialX 85m
param *.station[1].mobility.initialY 45m
param *.hostMobile[*].ipv4.configurator.typename "\"HostAutoConfigurator\""
param *.hostMobile[*].ipv4.configurator.interfaces "\"wlan0\""
param *.hostMobile[*].ipv4.configurator.mcastGroups "\"224.0.0.10\""
param *.hostMobile[*].ipv4.configurator.addressBase "\"20.0.5.0\""
param *.hostMobile[*].ipv4.configurator.netmask "\"255.0.0.0\""
param **wlan[*].radio.transmitter.power 0.58mW
param **wlan[*].radio.receiver.sensitivity -85dBm
param **wlan[*].radio.receiver.snirThreshold 6dB
param *.radioMedium.typename "\"Ieee80211DimensionalRadioMedium\""
param *.radioMedium.pathLoss.typename "\"LogNormalShadowing\""
param *.radioMedium.obstacleLoss.typename "\"\""
param **wlan[*].radio.typename "\"Ieee80211DimensionalRadio\""
param **.errorModel.snirMode "\"mean\""
param **.receiver.snirThresholdMode "\"mean\""
param **.mobility.constraintAreaMinZ 0m
param **.mobility.constraintAreaMaxZ 0m
param *.manager.updateInterval 0.4s
param *.manager.margin 0
param *.manager.autoShutdown true

scalar IEEE80211_AdHoc_Vadere.station[0].app[0] internalId 26
scalar IEEE80211_AdHoc_Vadere.station[0].app[0] moduleCreationTime 0
attr unit s
scalar IEEE80211_AdHoc_Vadere.hostMobile[0].app[0] internalId 169
scalar IEEE80211_AdHoc_Vadere.hostMobile[0].app[0] moduleCreationTime 0.4
attr unit s
scalar IEEE80211_AdHoc_Vadere.hostMobile[0].app[0] externalId 1
scalar IEEE80211_AdHoc_Vadere.hostMobile[1].app[0] internalId 231
scalar IEEE80211_AdHoc_Vadere.hostMobile[1].app[0] moduleCreationTime 0.4
attr unit s
scalar IEEE80211_AdHoc_Vadere.hostMobile[1].app[0] externalId 2
scalar IEEE80211_AdHoc_Vadere.hostMobile[2].app[0] internalId 293
scalar IEEE80211_AdHoc_Vadere.hostMobile[2].app[0] moduleCreationTime 0.4
attr unit s
scalar IEEE80211_AdHoc_Vadere.hostMobile[2].app[0] externalId 3
scalar IEEE80211_AdHoc_Vadere.hostMobile[3].app[0] internalId 355
scalar IEEE80211_AdHoc_Vadere.hostMobile[3].app[0] moduleCreationTime 0.4
attr unit s
scalar IEEE80211_AdHoc_Vadere.hostMobile[3].app[0] externalId 4
scalar IEEE80211_AdHoc_Vadere.hostMobile[4].app[0] internalId 417
scalar IEEE80211_AdHoc_Vadere.hostMobile[4].app[0] moduleCreationTime 0.4
attr unit s
scalar IEEE80211_AdHoc_Vadere.hostMobile[4].app[0] externalId 5
scalar IEEE80211_AdHoc_Vadere.hostMobile[5].app[0] internalId 479
scalar IEEE80211_AdHoc_Vadere.hostMobile[5].app[0] moduleCreationTime 0.8
attr unit s
scalar IEEE80211_AdHoc_Vadere.hostMobile[5].app[0] externalId 6
scalar IEEE80211_AdHoc_Vadere.hostMobile[6].app[0] internalId 541
scalar IEEE80211_AdHoc_Vadere.hostMobile[6].app[0] moduleCreationTime 2
attr unit s
scalar IEEE80211_AdHoc_Vadere.hostMobile[6].app[0] externalId 7
scalar IEEE80211_AdHoc_Vadere.hostMobile[7].app[0] internalId 603
scalar IEEE80211_AdHoc_Vadere.hostMobile[7].app[0] moduleCreationTime 2
attr unit s
scalar IEEE80211_AdHoc_Vadere.hostMobile[7].app[0] externalId 8
scalar IEEE80211_AdHoc_Vadere.hostMobile[8].app[0] internalId 665
scalar IEEE80211_AdHoc_Vadere.hostMobile[8].app[0] moduleCreationTime 4
attr unit s
scalar IEEE80211_AdHoc_Vadere.hostMobile[8].app[0] externalId 9
scalar IEEE80211_AdHoc_Vadere.hostMobile[9].app[0] internalId 727
scalar IEEE80211_AdHoc_Vadere.hostMobile[9].app[0] moduleCreationTime 4.4
attr unit s
scalar IEEE80211_AdHoc_Vadere.hostMobile[9].app[0] externalId 10
scalar IEEE80211_AdHoc_Vadere.hostMobile[10].app[0] internalId 789
scalar IEEE80211_AdHoc_Vadere.hostMobile[10].app[0] moduleCreationTime 5.2
attr unit s
scalar IEEE80211_AdHoc_Vadere.hostMobile[10].app[0] externalId 11
scalar IEEE80211_AdHoc_Vadere.hostMobile[11].app[0] internalId 851
scalar IEEE80211_AdHoc_Vadere.hostMobile[11].app[0] moduleCreationTime 7.2
attr unit s
scalar IEEE80211_AdHoc_Vadere.hostMobile[11].app[0] externalId 12
scalar IEEE80211_AdHoc_Vadere.hostMobile[12].app[0] internalId 913
scalar IEEE80211_AdHoc_Vadere.hostMobile[12].app[0] moduleCreationTime 8
attr unit s
scalar IEEE80211_AdHoc_Vadere.hostMobile[12].app[0] externalId 13
scalar IEEE80211_AdHoc_Vadere.hostMobile[13].app[0] internalId 975
scalar IEEE80211_AdHoc_Vadere.hostMobile[13].app[0] moduleCreationTime 8
attr unit s
scalar IEEE80211_AdHoc_Vadere.hostMobile[13].app[0] externalId 14
scalar IEEE80211_AdHoc_Vadere.hostMobile[14].app[0] internalId 1037
scalar IEEE80211_AdHoc_Vadere.hostMobile[14].app[0] moduleCreationTime 8
attr unit s
scalar IEEE80211_AdHoc_Vadere.hostMobile[14].app[0] externalId 15
scalar IEEE80211_AdHoc_Vadere.hostMobile[15].app[0] internalId 1099
scalar IEEE80211_AdHoc_Vadere.hostMobile[15].app[0] moduleCreationTime 9.2
attr unit s
scalar IEEE80211_AdHoc_Vadere.hostMobile[15].app[0] externalId 16
scalar IEEE80211_AdHoc_Vadere.hostMobile[16].app[0] internalId 1161
scalar IEEE80211_AdHoc_Vadere.hostMobile[16].app[0] moduleCreationTime 9.2
attr unit s
scalar IEEE80211_AdHoc_Vadere.hostMobile[16].app[0] externalId 17
scalar IEEE80211_AdHoc_Vadere.hostMobile[17].app[0] internalId 1223
scalar IEEE80211_AdHoc_Vadere.hostMobile[17].app[0] moduleCreationTime 9.2
attr unit s
scalar IEEE80211_AdHoc_Vadere.hostMobile[17].app[0] externalId 18
scalar IEEE80211_AdHoc_Vadere.hostMobile[18].app[0] internalId 1285
scalar IEEE80211_AdHoc_Vadere.hostMobile[18].app[0] moduleCreationTime 10.8
attr unit s
scalar IEEE80211_AdHoc_Vadere.hostMobile[18].app[0] externalId 19
scalar IEEE80211_AdHoc_Vadere.hostMobile[19].app[0] internalId 1347
scalar IEEE80211_AdHoc_Vadere.hostMobile[19].app[0] moduleCreationTime 11.2
attr unit s
scalar IEEE80211_AdHoc_Vadere.hostMobile[19].app[0] externalId 20
scalar IEEE80211_AdHoc_Vadere.hostMobile[20].app[0] internalId 1409
scalar IEEE80211_AdHoc_Vadere.hostMobile[20].app[0] moduleCreationTime 12.4
attr unit s
scalar IEEE80211_AdHoc_Vadere.hostMobile[20].app[0] externalId 21
scalar IEEE80211_AdHoc_Vadere.hostMobile[21].app[0] internalId 1471
scalar IEEE80211_AdHoc_Vadere.hostMobile[21].app[0] moduleCreationTime 12.8
attr unit s
scalar IEEE80211_AdHoc_Vadere.hostMobile[21].app[0] externalId 22
scalar IEEE80211_AdHoc_Vadere.hostMobile[22].app[0] internalId 1533
scalar IEEE80211_AdHoc_Vadere.hostMobile[22].app[0] moduleCreationTime 13.6
attr unit s
scalar IEEE80211_AdHoc_Vadere.hostMobile[22].app[0] externalId 23
scalar IEEE80211_AdHoc_Vadere.hostMobile[23].app[0] internalId 1595
scalar IEEE80211_AdHoc_Vadere.hostMobile[23].app[0] moduleCreationTime 15.2
attr unit s
scalar IEEE80211_AdHoc_Vadere.hostMobile[23].app[0] externalId 24
scalar IEEE80211_AdHoc_Vadere.hostMobile[24].app[0] internalId 1657
scalar IEEE80211_AdHoc_Vadere.hostMobile[24].app[0] moduleCreationTime 16
attr unit s
scalar IEEE80211_AdHoc_Vadere.hostMobile[24].app[0] externalId 25
scalar IEEE80211_AdHoc_Vadere.hostMobile[25].app[0] internalId 1719
scalar IEEE80211_AdHoc_Vadere.hostMobile[25].app[0] moduleCreationTime 16.4
attr unit s
scalar IEEE80211_AdHoc_Vadere.hostMobile[25].app[0] externalId 26
scalar IEEE80211_AdHoc_Vadere.hostMobile[26].app[0] internalId 1781
scalar IEEE80211_AdHoc_Vadere.hostMobile[26].app[0] moduleCreationTime 16.4
attr unit s
scalar IEEE80211_AdHoc_Vadere.hostMobile[26].app[0] externalId 27
scalar IEEE80211_AdHoc_Vadere.hostMobile[27].app[0] internalId 1843
scalar IEEE80211_AdHoc_Vadere.hostMobile[27].app[0] moduleCreationTime 16.4
attr unit s
scalar IEEE80211_AdHoc_Vadere.hostMobile[27].app[0] externalId 28
scalar IEEE80211_AdHoc_Vadere.hostMobile[28].app[0] internalId 1905
scalar IEEE80211_AdHoc_Vadere.hostMobile[28].app[0] moduleCreationTime 16.8
attr unit s
scalar IEEE80211_AdHoc_Vadere.hostMobile[28].app[0] externalId 29
scalar IEEE80211_AdHoc_Vadere.hostMobile[29].app[0] internalId 1967
scalar IEEE80211_AdHoc_Vadere.hostMobile[29].app[0] moduleCreationTime 18
attr unit s
scalar IEEE80211_AdHoc_Vadere.hostMobile[29].app[0] externalId 30
scalar IEEE80211_AdHoc_Vadere.hostMobile[30].app[0] internalId 2029
scalar IEEE80211_AdHoc_Vadere.hostMobile[30].app[0] moduleCreationTime 18
attr unit s
scalar IEEE80211_AdHoc_Vadere.hostMobile[30].app[0] externalId 31
scalar IEEE80211_AdHoc_Vadere.hostMobile[31].app[0] internalId 2091
scalar IEEE80211_AdHoc_Vadere.hostMobile[31].app[0] moduleCreationTime 19.6
attr unit s
scalar IEEE80211_AdHoc_Vadere.hostMobile[31].app[0] externalId 32
scalar IEEE80211_AdHoc_Vadere.hostMobile[32].app[0] internalId 2153
scalar IEEE80211_AdHoc_Vadere.hostMobile[32].app[0] moduleCreationTime 19.6
attr unit s
scalar IEEE80211_AdHoc_Vadere.hostMobile[32].app[0] externalId 33
scalar IEEE80211_AdHoc_Vadere.hostMobile[33].app[0] internalId 2215
scalar IEEE80211_AdHoc_Vadere.hostMobile[33].app[0] moduleCreationTime 20
attr unit s
scalar IEEE80211_AdHoc_Vadere.hostMobile[33].app[0] externalId 34
scalar IEEE80211_AdHoc_Vadere.hostMobile[34].app[0] internalId 2277
scalar IEEE80211_AdHoc_Vadere.hostMobile[34].app[0] moduleCreationTime 20
attr unit s
scalar IEEE80211_AdHoc_Vadere.hostMobile[34].app[0] externalId 35
scalar IEEE80211_AdHoc_Vadere.hostMobile[35].app[0] internalId 2339
scalar IEEE80211_AdHoc_Vadere.hostMobile[35].app[0] moduleCreationTime 23.2
attr unit s
scalar IEEE80211_AdHoc_Vadere.hostMobile[35].app[0] externalId 36
scalar IEEE80211_AdHoc_Vadere.hostMobile[36].app[0] internalId 2401
scalar IEEE80211_AdHoc_Vadere.hostMobile[36].app[0] moduleCreationTime 24
attr unit s
scalar IEEE80211_AdHoc_Vadere.hostMobile[36].app[0] externalId 37
scalar IEEE80211_AdHoc_Vadere.hostMobile[37].app[0] internalId 2463
scalar IEEE80211_AdHoc_Vadere.hostMobile[37].app[0] moduleCreationTime 24
attr unit s
scalar IEEE80211_AdHoc_Vadere.hostMobile[37].app[0] externalId 38
scalar IEEE80211_AdHoc_Vadere.hostMobile[38].app[0] internalId 2525
scalar IEEE80211_AdHoc_Vadere.hostMobile[38].app[0] moduleCreationTime 24.4
attr unit s
scalar IEEE80211_AdHoc_Vadere.hostMobile[38].app[0] externalId 39
scalar IEEE80211_AdHoc_Vadere.hostMobile[39].app[0] internalId 2587
scalar IEEE80211_AdHoc_Vadere.hostMobile[39].app[0] moduleCreationTime 24.8
attr unit s
scalar IEEE80211_AdHoc_Vadere.hostMobile[39].app[0] externalId 40
scalar IEEE80211_AdHoc_Vadere.hostMobile[40].app[0] internalId 2649
scalar IEEE80211_AdHoc_Vadere.hostMobile[40].app[0] moduleCreationTime 26
attr unit s
scalar IEEE80211_AdHoc_Vadere.hostMobile[40].app[0] externalId 41
scalar IEEE80211_AdHoc_Vadere.hostMobile[41].app[0] internalId 2711
scalar IEEE80211_AdHoc_Vadere.hostMobile[41].app[0] moduleCreationTime 27.2
attr unit s
scalar IEEE80211_AdHoc_Vadere.hostMobile[41].app[0] externalId 42
scalar IEEE80211_AdHoc_Vadere.hostMobile[42].app[0] internalId 2773
scalar IEEE80211_AdHoc_Vadere.hostMobile[42].app[0] moduleCreationTime 27.2
attr unit s
scalar IEEE80211_AdHoc_Vadere.hostMobile[42].app[0] externalId 43
scalar IEEE80211_AdHoc_Vadere.hostMobile[43].app[0] internalId 2835
scalar IEEE80211_AdHoc_Vadere.hostMobile[43].app[0] moduleCreationTime 30
attr unit s
scalar IEEE80211_AdHoc_Vadere.hostMobile[43].app[0] externalId 44
scalar IEEE80211_AdHoc_Vadere.hostMobile[44].app[0] internalId 2897
scalar IEEE80211_AdHoc_Vadere.hostMobile[44].app[0] moduleCreationTime 31.6
attr unit s
scalar IEEE80211_AdHoc_Vadere.hostMobile[44].app[0] externalId 45
scalar IEEE80211_AdHoc_Vadere.hostMobile[45].app[0] internalId 2959
scalar IEEE80211_AdHoc_Vadere.hostMobile[45].app[0] moduleCreationTime 32
attr unit s
scalar IEEE80211_AdHoc_Vadere.hostMobile[45].app[0] externalId 46
scalar IEEE80211_AdHoc_Vadere.hostMobile[46].app[0] internalId 3021
scalar IEEE80211_AdHoc_Vadere.hostMobile[46].app[0] moduleCreationTime 33.2
attr unit s
scalar IEEE80211_AdHoc_Vadere.hostMobile[46].app[0] externalId 47
scalar IEEE80211_AdHoc_Vadere.hostMobile[47].app[0] internalId 3083
scalar IEEE80211_AdHoc_Vadere.hostMobile[47].app[0] moduleCreationTime 33.6
attr unit s
scalar IEEE80211_AdHoc_Vadere.hostMobile[47].app[0] externalId 48
scalar IEEE80211_AdHoc_Vadere.hostMobile[48].app[0] internalId 3145
scalar IEEE80211_AdHoc_Vadere.hostMobile[48].app[0] moduleCreationTime 33.6
attr unit s
scalar IEEE80211_AdHoc_Vadere.hostMobile[48].app[0] externalId 49
scalar IEEE80211_AdHoc_Vadere.hostMobile[49].app[0] internalId 3207
scalar IEEE80211_AdHoc_Vadere.hostMobile[49].app[0] moduleCreationTime 34.4
attr unit s
scalar IEEE80211_AdHoc_Vadere.hostMobile[49].app[0] externalId 50
scalar IEEE80211_AdHoc_Vadere.hostMobile[50].app[0] internalId 3269
scalar IEEE80211_AdHoc_Vadere.hostMobile[50].app[0] moduleCreationTime 34.4
attr unit s
scalar IEEE80211_AdHoc_Vadere.hostMobile[50].app[0] externalId 51
scalar IEEE80211_AdHoc_Vadere.hostMobile[51].app[0] internalId 3331
scalar IEEE80211_AdHoc_Vadere.hostMobile[51].app[0] moduleCreationTime 34.8
attr unit s
scalar IEEE80211_AdHoc_Vadere.hostMobile[51].app[0] externalId 52
scalar IEEE80211_AdHoc_Vadere.hostMobile[52].app[0] internalId 3393
scalar IEEE80211_AdHoc_Vadere.hostMobile[52].app[0] moduleCreationTime 36
attr unit s
scalar IEEE80211_AdHoc_Vadere.hostMobile[52].app[0] externalId 53
scalar IEEE80211_AdHoc_Vadere.hostMobile[53].app[0] internalId 3455
scalar IEEE80211_AdHoc_Vadere.hostMobile[53].app[0] moduleCreationTime 36
attr unit s
scalar IEEE80211_AdHoc_Vadere.hostMobile[53].app[0] externalId 54
scalar IEEE80211_AdHoc_Vadere.hostMobile[54].app[0] internalId 3517
scalar IEEE80211_AdHoc_Vadere.hostMobile[54].app[0] moduleCreationTime 36.4
attr unit s
scalar IEEE80211_AdHoc_Vadere.hostMobile[54].app[0] externalId 55
scalar IEEE80211_AdHoc_Vadere.hostMobile[55].app[0] internalId 3579
scalar IEEE80211_AdHoc_Vadere.hostMobile[55].app[0] moduleCreationTime 36.8
attr unit s
scalar IEEE80211_AdHoc_Vadere.hostMobile[55].app[0] externalId 56
scalar IEEE80211_AdHoc_Vadere.hostMobile[56].app[0] internalId 3641
scalar IEEE80211_AdHoc_Vadere.hostMobile[56].app[0] moduleCreationTime 38
attr unit s
scalar IEEE80211_AdHoc_Vadere.hostMobile[56].app[0] externalId 57
scalar IEEE80211_AdHoc_Vadere.hostMobile[57].app[0] internalId 3703
scalar IEEE80211_AdHoc_Vadere.hostMobile[57].app[0] moduleCreationTime 38.4
attr unit s
scalar IEEE80211_AdHoc_Vadere.hostMobile[57].app[0] externalId 58
scalar IEEE80211_AdHoc_Vadere.hostMobile[58].app[0] internalId 3765
scalar IEEE80211_AdHoc_Vadere.hostMobile[58].app[0] moduleCreationTime 38.4
attr unit s
scalar IEEE80211_AdHoc_Vadere.hostMobile[58].app[0] externalId 59
scalar IEEE80211_AdHoc_Vadere.hostMobile[59].app[0] internalId 3827
scalar IEEE80211_AdHoc_Vadere.hostMobile[59].app[0] moduleCreationTime 38.8
attr unit s
scalar IEEE80211_AdHoc_Vadere.hostMobile[59].app[0] externalId 60
scalar IEEE80211_AdHoc_Vadere.hostMobile[60].app[0] internalId 3889
scalar IEEE80211_AdHoc_Vadere.hostMobile[60].app[0] moduleCreationTime 40.8
attr unit s
scalar IEEE80211_AdHoc_Vadere.hostMobile[60].app[0] externalId 61
scalar IEEE80211_AdHoc_Vadere.hostMobile[61].app[0] internalId 3951
scalar IEEE80211_AdHoc_Vadere.hostMobile[61].app[0] moduleCreationTime 42.4
attr unit s
scalar IEEE80211_AdHoc_Vadere.hostMobile[61].app[0] externalId 62
scalar IEEE80211_AdHoc_Vadere.hostMobile[62].app[0] internalId 4013
scalar IEEE80211_AdHoc_Vadere.hostMobile[62].app[0] moduleCreationTime 42.8
attr unit s
scalar IEEE80211_AdHoc_Vadere.hostMobile[62].app[0] externalId 63
scalar IEEE80211_AdHoc_Vadere.hostMobile[63].app[0] internalId 4075
scalar IEEE80211_AdHoc_Vadere.hostMobile[63].app[0] moduleCreationTime 44
attr unit s
scalar IEEE80211_AdHoc_Vadere.hostMobile[63].app[0] externalId 64
scalar IEEE80211_AdHoc_Vadere.hostMobile[64].app[0] internalId 4137
scalar IEEE80211_AdHoc_Vadere.hostMobile[64].app[0] moduleCreationTime 44.4
attr unit s
scalar IEEE80211_AdHoc_Vadere.hostMobile[64].app[0] externalId 65
scalar IEEE80211_AdHoc_Vadere.hostMobile[65].app[0] internalId 4199
scalar IEEE80211_AdHoc_Vadere.hostMobile[65].app[0] moduleCreationTime 46.4
attr unit s
scalar IEEE80211_AdHoc_Vadere.hostMobile[65].app[0] externalId 66
scalar IEEE80211_AdHoc_Vadere.hostMobile[66].app[0] internalId 4261
scalar IEEE80211_AdHoc_Vadere.hostMobile[66].app[0] moduleCreationTime 46.4
attr unit s
scalar IEEE80211_AdHoc_Vadere.hostMobile[66].app[0] externalId 67
scalar IEEE80211_AdHoc_Vadere.hostMobile[67].app[0] internalId 4323
scalar IEEE80211_AdHoc_Vadere.hostMobile[67].app[0] moduleCreationTime 48.4
attr unit s
scalar IEEE80211_AdHoc_Vadere.hostMobile[67].app[0] externalId 68
scalar IEEE80211_AdHoc_Vadere.hostMobile[68].app[0] internalId 4385
scalar IEEE80211_AdHoc_Vadere.hostMobile[68].app[0] moduleCreationTime 48.8
attr unit s
scalar IEEE80211_AdHoc_Vadere.hostMobile[68].app[0] externalId 69
scalar IEEE80211_AdHoc_Vadere.hostMobile[69].app[0] internalId 4447
scalar IEEE80211_AdHoc_Vadere.hostMobile[69].app[0] moduleCreationTime 48.8
attr unit s
scalar IEEE80211_AdHoc_Vadere.hostMobile[69].app[0] externalId 70
scalar IEEE80211_AdHoc_Vadere.hostMobile[70].app[0] internalId 4509
scalar IEEE80211_AdHoc_Vadere.hostMobile[70].app[0] moduleCreationTime 48.8
attr unit s
scalar IEEE80211_AdHoc_Vadere.hostMobile[70].app[0] externalId 71
scalar IEEE80211_AdHoc_Vadere.hostMobile[71].app[0] internalId 4571
scalar IEEE80211_AdHoc_Vadere.hostMobile[71].app[0] moduleCreationTime 49.2
attr unit s
scalar IEEE80211_AdHoc_Vadere.hostMobile[71].app[0] externalId 72
scalar IEEE80211_AdHoc_Vadere.hostMobile[72].app[0] internalId 4633
scalar IEEE80211_AdHoc_Vadere.hostMobile[72].app[0] moduleCreationTime 49.6
attr unit s
scalar IEEE80211_AdHoc_Vadere.hostMobile[72].app[0] externalId 73
scalar IEEE80211_AdHoc_Vadere.hostMobile[73].app[0] internalId 4695
scalar IEEE80211_AdHoc_Vadere.hostMobile[73].app[0] moduleCreationTime 50
attr unit s
scalar IEEE80211_AdHoc_Vadere.hostMobile[73].app[0] externalId 74
scalar IEEE80211_AdHoc_Vadere.hostMobile[74].app[0] internalId 4757
scalar IEEE80211_AdHoc_Vadere.hostMobile[74].app[0] moduleCreationTime 50.4
attr unit s
scalar IEEE80211_AdHoc_Vadere.hostMobile[74].app[0] externalId 75
scalar IEEE80211_AdHoc_Vadere.hostMobile[75].app[0] internalId 4819
scalar IEEE80211_AdHoc_Vadere.hostMobile[75].app[0] moduleCreationTime 50.4
attr unit s
scalar IEEE80211_AdHoc_Vadere.hostMobile[75].app[0] externalId 76
scalar IEEE80211_AdHoc_Vadere.hostMobile[76].app[0] internalId 4881
scalar IEEE80211_AdHoc_Vadere.hostMobile[76].app[0] moduleCreationTime 50.8
attr unit s
scalar IEEE80211_AdHoc_Vadere.hostMobile[76].app[0] externalId 77
scalar IEEE80211_AdHoc_Vadere.hostMobile[77].app[0] internalId 4943
scalar IEEE80211_AdHoc_Vadere.hostMobile[77].app[0] moduleCreationTime 51.2
attr unit s
scalar IEEE80211_AdHoc_Vadere.hostMobile[77].app[0] externalId 78
scalar IEEE80211_AdHoc_Vadere.hostMobile[78].app[0] internalId 5005
scalar IEEE80211_AdHoc_Vadere.hostMobile[78].app[0] moduleCreationTime 51.2
attr unit s
scalar IEEE80211_AdHoc_Vadere.hostMobile[78].app[0] externalId 79
scalar IEEE80211_AdHoc_Vadere.hostMobile[79].app[0] internalId 5067
scalar IEEE80211_AdHoc_Vadere.hostMobile[79].app[0] moduleCreationTime 51.6
attr unit s
scalar IEEE80211_AdHoc_Vadere.hostMobile[79].app[0] externalId 80
scalar IEEE80211_AdHoc_Vadere.hostMobile[80].app[0] internalId 5129
scalar IEEE80211_AdHoc_Vadere.hostMobile[80].app[0] moduleCreationTime 51.6
attr unit s
scalar IEEE80211_AdHoc_Vadere.hostMobile[80].app[0] externalId 81
scalar IEEE80211_AdHoc_Vadere.hostMobile[81].app[0] internalId 5191
scalar IEEE80211_AdHoc_Vadere.hostMobile[81].app[0] moduleCreationTime 54
attr unit s
scalar IEEE80211_AdHoc_Vadere.hostMobile[81].app[0] externalId 82
scalar IEEE80211_AdHoc_Vadere.hostMobile[82].app[0] internalId 5253
scalar IEEE80211_AdHoc_Vadere.hostMobile[82].app[0] moduleCreationTime 56
attr unit s
scalar IEEE80211_AdHoc_Vadere.hostMobile[82].app[0] externalId 83
scalar IEEE80211_AdHoc_Vadere.hostMobile[83].app[0] internalId 5315
scalar IEEE80211_AdHoc_Vadere.hostMobile[83].app[0] moduleCreationTime 57.6
attr unit s
scalar IEEE80211_AdHoc_Vadere.hostMobile[83].app[0] externalId 84
scalar IEEE80211_AdHoc_Vadere.hostMobile[84].app[0] internalId 5377
scalar IEEE80211_AdHoc_Vadere.hostMobile[84].app[0] moduleCreationTime 58.8
attr unit s
scalar IEEE80211_AdHoc_Vadere.hostMobile[84].app[0] externalId 85
scalar IEEE80211_AdHoc_Vadere.hostMobile[85].app[0] internalId 5439
scalar IEEE80211_AdHoc_Vadere.hostMobile[85].app[0] moduleCreationTime 58.8
attr unit s
scalar IEEE80211_AdHoc_Vadere.hostMobile[85].app[0] externalId 86
scalar IEEE80211_AdHoc_Vadere.hostMobile[86].app[0] internalId 5501
scalar IEEE80211_AdHoc_Vadere.hostMobile[86].app[0] moduleCreationTime 59.2
attr unit s
scalar IEEE80211_AdHoc_Vadere.hostMobile[86].app[0] externalId 87
scalar IEEE80211_AdHoc_Vadere.hostMobile[87].app[0] internalId 5563
scalar IEEE80211_AdHoc_Vadere.hostMobile[87].app[0] moduleCreationTime 59.2
attr unit s
scalar IEEE80211_AdHoc_Vadere.hostMobile[87].app[0] externalId 88
scalar IEEE80211_AdHoc_Vadere.hostMobile[88].app[0] internalId 5625
scalar IEEE80211_AdHoc_Vadere.hostMobile[88].app[0] moduleCreationTime 60.4
attr unit s
scalar IEEE80211_AdHoc_Vadere.hostMobile[88].app[0] externalId 89
scalar IEEE80211_AdHoc_Vadere.hostMobile[89].app[0] internalId 5687
scalar IEEE80211_AdHoc_Vadere.hostMobile[89].app[0] moduleCreationTime 60.8
attr unit s
scalar IEEE80211_AdHoc_Vadere.hostMobile[89].app[0] externalId 90
scalar IEEE80211_AdHoc_Vadere.hostMobile[90].app[0] internalId 5749
scalar IEEE80211_AdHoc_Vadere.hostMobile[90].app[0] moduleCreationTime 62
attr unit s
scalar IEEE80211_AdHoc_Vadere.hostMobile[90].app[0] externalId 91
scalar IEEE80211_AdHoc_Vadere.hostMobile[91].app[0] internalId 5811
scalar IEEE80211_AdHoc_Vadere.hostMobile[91].app[0] moduleCreationTime 62.8
attr unit s
scalar IEEE80211_AdHoc_Vadere.hostMobile[91].app[0] externalId 92
scalar IEEE80211_AdHoc_Vadere.hostMobile[92].app[0] internalId 5873
scalar IEEE80211_AdHoc_Vadere.hostMobile[92].app[0] moduleCreationTime 62.8
attr unit s
scalar IEEE80211_AdHoc_Vadere.hostMobile[92].app[0] externalId 93
scalar IEEE80211_AdHoc_Vadere.hostMobile[93].app[0] internalId 5935
scalar IEEE80211_AdHoc_Vadere.hostMobile[93].app[0] moduleCreationTime 64.8
attr unit s
scalar IEEE80211_AdHoc_Vadere.hostMobile[93].app[0] externalId 94
scalar IEEE80211_AdHoc_Vadere.hostMobile[94].app[0] internalId 5997
scalar IEEE80211_AdHoc_Vadere.hostMobile[94].app[0] moduleCreationTime 66
attr unit s
scalar IEEE80211_AdHoc_Vadere.hostMobile[94].app[0] externalId 95
scalar IEEE80211_AdHoc_Vadere.hostMobile[95].app[0] internalId 6059
scalar IEEE80211_AdHoc_Vadere.hostMobile[95].app[0] moduleCreationTime 66.8
attr unit s
scalar IEEE80211_AdHoc_Vadere.hostMobile[95].app[0] externalId 96
scalar IEEE80211_AdHoc_Vadere.hostMobile[96].app[0] internalId 6121
scalar IEEE80211_AdHoc_Vadere.hostMobile[96].app[0] moduleCreationTime 67.6
attr unit s
scalar IEEE80211_AdHoc_Vadere.hostMobile[96].app[0] externalId 97
scalar IEEE80211_AdHoc_Vadere.hostMobile[97].app[0] internalId 6183
scalar IEEE80211_AdHoc_Vadere.hostMobile[97].app[0] moduleCreationTime 68.4
attr unit s
scalar IEEE80211_AdHoc_Vadere.hostMobile[97].app[0] externalId 98
scalar IEEE80211_AdHoc_Vadere.hostMobile[98].app[0] internalId 6245
scalar IEEE80211_AdHoc_Vadere.hostMobile[98].app[0] moduleCreationTime 68.4
attr unit s
scalar IEEE80211_AdHoc_Vadere.hostMobile[98].app[0] externalId 99
scalar IEEE80211_AdHoc_Vadere.hostMobile[99].app[0] internalId 6307
scalar IEEE80211_AdHoc_Vadere.hostMobile[99].app[0] moduleCreationTime 68.8
attr unit s
scalar IEEE80211_AdHoc_Vadere.hostMobile[99].app[0] externalId 100
scalar IEEE80211_AdHoc_Vadere.hostMobile[100].app[0] internalId 6369
scalar IEEE80211_AdHoc_Vadere.hostMobile[100].app[0] moduleCreationTime 70.8
attr unit s
scalar IEEE80211_AdHoc_Vadere.hostMobile[100].app[0] externalId 101
scalar IEEE80211_AdHoc_Vadere.hostMobile[101].app[0] internalId 6431
scalar IEEE80211_AdHoc_Vadere.hostMobile[101].app[0] moduleCreationTime 70.8
attr unit s
scalar IEEE80211_AdHoc_Vadere.hostMobile[101].app[0] externalId 102
scalar IEEE80211_AdHoc_Vadere.hostMobile[102].app[0] internalId 6493
scalar IEEE80211_AdHoc_Vadere.hostMobile[102].app[0] moduleCreationTime 71.2
attr unit s
scalar IEEE80211_AdHoc_Vadere.hostMobile[102].app[0] externalId 103
scalar IEEE80211_AdHoc_Vadere.hostMobile[103].app[0] internalId 6555
scalar IEEE80211_AdHoc_Vadere.hostMobile[103].app[0] moduleCreationTime 72.8
attr unit s
scalar IEEE80211_AdHoc_Vadere.hostMobile[103].app[0] externalId 104
scalar IEEE80211_AdHoc_Vadere.hostMobile[104].app[0] internalId 6617
scalar IEEE80211_AdHoc_Vadere.hostMobile[104].app[0] moduleCreationTime 74
attr unit s
scalar IEEE80211_AdHoc_Vadere.hostMobile[104].app[0] externalId 105
scalar IEEE80211_AdHoc_Vadere.hostMobile[105].app[0] internalId 6679
scalar IEEE80211_AdHoc_Vadere.hostMobile[105].app[0] moduleCreationTime 74.4
attr unit s
scalar IEEE80211_AdHoc_Vadere.hostMobile[105].app[0] externalId 106
scalar IEEE80211_AdHoc_Vadere.hostMobile[106].app[0] internalId 6741
scalar IEEE80211_AdHoc_Vadere.hostMobile[106].app[0] moduleCreationTime 74.8
attr unit s
scalar IEEE80211_AdHoc_Vadere.hostMobile[106].app[0] externalId 107
scalar IEEE80211_AdHoc_Vadere.hostMobile[107].app[0] internalId 6803
scalar IEEE80211_AdHoc_Vadere.hostMobile[107].app[0] moduleCreationTime 75.2
attr unit s
scalar IEEE80211_AdHoc_Vadere.hostMobile[107].app[0] externalId 108
scalar IEEE80211_AdHoc_Vadere.hostMobile[108].app[0] internalId 6865
scalar IEEE80211_AdHoc_Vadere.hostMobile[108].app[0] moduleCreationTime 75.2
attr unit s
scalar IEEE80211_AdHoc_Vadere.hostMobile[108].app[0] externalId 109
scalar IEEE80211_AdHoc_Vadere.hostMobile[109].app[0] internalId 6927
scalar IEEE80211_AdHoc_Vadere.hostMobile[109].app[0] moduleCreationTime 76
attr unit s
scalar IEEE80211_AdHoc_Vadere.hostMobile[109].app[0] externalId 110
scalar IEEE80211_AdHoc_Vadere.hostMobile[110].app[0] internalId 6989
scalar IEEE80211_AdHoc_Vadere.hostMobile[110].app[0] moduleCreationTime 76
attr unit s
scalar IEEE80211_AdHoc_Vadere.hostMobile[110].app[0] externalId 111
scalar IEEE80211_AdHoc_Vadere.hostMobile[111].app[0] internalId 7051
scalar IEEE80211_AdHoc_Vadere.hostMobile[111].app[0] moduleCreationTime 76.8
attr unit s
scalar IEEE80211_AdHoc_Vadere.hostMobile[111].app[0] externalId 112
scalar IEEE80211_AdHoc_Vadere.hostMobile[112].app[0] internalId 7113
scalar IEEE80211_AdHoc_Vadere.hostMobile[112].app[0] moduleCreationTime 77.6
attr unit s
scalar IEEE80211_AdHoc_Vadere.hostMobile[112].app[0] externalId 113
scalar IEEE80211_AdHoc_Vadere.hostMobile[113].app[0] internalId 7175
scalar IEEE80211_AdHoc_Vadere.hostMobile[113].app[0] moduleCreationTime 78.8
attr unit s
scalar IEEE80211_AdHoc_Vadere.hostMobile[113].app[0] externalId 114
scalar IEEE80211_AdHoc_Vadere.hostMobile[114].app[0] internalId 7237
scalar IEEE80211_AdHoc_Vadere.hostMobile[114].app[0] moduleCreationTime 79.6
attr unit s
scalar IEEE80211_AdHoc_Vadere.hostMobile[114].app[0] externalId 115
scalar IEEE80211_AdHoc_Vadere.hostMobile[115].app[0] internalId 7299
scalar IEEE80211_AdHoc_Vadere.hostMobile[115].app[0] moduleCreationTime 81.2
attr unit s
scalar IEEE80211_AdHoc_Vadere.hostMobile[115].app[0] externalId 116
scalar IEEE80211_AdHoc_Vadere.hostMobile[116].app[0] internalId 7361
scalar IEEE80211_AdHoc_Vadere.hostMobile[116].app[0] moduleCreationTime 81.6
attr unit s
scalar IEEE80211_AdHoc_Vadere.hostMobile[116].app[0] externalId 117
scalar IEEE80211_AdHoc_Vadere.hostMobile[117].app[0] internalId 7423
scalar IEEE80211_AdHoc_Vadere.hostMobile[117].app[0] moduleCreationTime 82
attr unit s
scalar IEEE80211_AdHoc_Vadere.hostMobile[117].app[0] externalId 118
scalar IEEE80211_AdHoc_Vadere.hostMobile[118].app[0] internalId 7485
scalar IEEE80211_AdHoc_Vadere.hostMobile[118].app[0] moduleCreationTime 82.4
attr unit s
scalar IEEE80211_AdHoc_Vadere.hostMobile[118].app[0] externalId 119
scalar IEEE80211_AdHoc_Vadere.hostMobile[119].app[0] internalId 7547
scalar IEEE80211_AdHoc_Vadere.hostMobile[119].app[0] moduleCreationTime 83.6
attr unit s
scalar IEEE80211_AdHoc_Vadere.hostMobile[119].app[0] externalId 120
scalar IEEE80211_AdHoc_Vadere.hostMobile[3].mobility externalId:last 4
attr source veins_inet_mobility_base_mobility_pre_init
scalar IEEE80211_AdHoc_Vadere.hostMobile[3].lo[0].lo rcvdPkFromHl:count 0
attr interpolationmode none
attr source packetReceivedFromUpper
attr title "packets received from higher layer, count"
scalar IEEE80211_AdHoc_Vadere.hostMobile[3].lo[0].lo rcvdPkFromHl:sum(packetBytes) 0
attr interpolationmode none
attr source packetReceivedFromUpper
attr title "packets received from higher layer, sum(packetBytes)"
scalar IEEE80211_AdHoc_Vadere.hostMobile[3].lo[0].lo passedUpPk:count 0
attr interpolationmode none
attr source packetSentToUpper
attr title "packets passed to higher layer, count"
scalar IEEE80211_AdHoc_Vadere.hostMobile[3].lo[0].lo passedUpPk:sum(packetBytes) 0
attr interpolationmode none
attr source packetSentToUpper
attr title "packets passed to higher layer, sum(packetBytes)"
scalar IEEE80211_AdHoc_Vadere.hostMobile[3].wlan[0].mac.dcf.channelAccess.pendingQueue packetPopped:count 0
attr interpolationmode none
attr title "packet popped, count"
scalar IEEE80211_AdHoc_Vadere.hostMobile[3].wlan[0].mac.dcf.channelAccess.pendingQueue packetPopped:sum(packetBytes) 0
attr interpolationmode none
attr title "packet popped, sum(packetBytes)"
scalar IEEE80211_AdHoc_Vadere.hostMobile[3].wlan[0].mac.dcf.channelAccess.pendingQueue queueLength:max nan
attr interpolationmode sample-hold
attr source "count(packetPushed) - count(packetPopped) - count(packetRemoved) - count(packetDropped)"
attr title "queue length, max"
scalar IEEE80211_AdHoc_Vadere.hostMobile[3].wlan[0].mac.dcf.channelAccess.pendingQueue queueLength:timeavg -nan
attr interpolationmode sample-hold
attr source "count(packetPushed) - count(packetPopped) - count(packetRemoved) - count(packetDropped)"
attr title "queue length, timeavg"
scalar IEEE80211_AdHoc_Vadere.hostMobile[3].wlan[0].mac.dcf.channelAccess.pendingQueue packetPushed:count 0
attr interpolationmode none
attr title "packet pushed, count"
scalar IEEE80211_AdHoc_Vadere.hostMobile[3].wlan[0].mac.dcf.channelAccess.pendingQueue packetPushed:sum(packetBytes) 0
attr interpolationmode none
attr title "packet pushed, sum(packetBytes)"
scalar IEEE80211_AdHoc_Vadere.hostMobile[3].wlan[0].mac.dcf.channelAccess.pendingQueue packetDropQueueOverflow:count 0
attr interpolationmode none
attr source packetDropReasonIsQueueOverflow(packetDropped)
attr title "packet drops: queue overflow, count"
scalar IEEE80211_AdHoc_Vadere.hostMobile[3].wlan[0].mac.dcf.channelAccess.pendingQueue packetDropQueueOverflow:sum(packetBytes) 0
attr interpolationmode none
attr source packetDropReasonIsQueueOverflow(packetDropped)
attr title "packet drops: queue overflow, sum(packetBytes)"
scalar IEEE80211_AdHoc_Vadere.hostMobile[3].wlan[0].mac.dcf.channelAccess.pendingQueue packetRemoved:count 0
attr interpolationmode none
attr title "packets removed, count"
scalar IEEE80211_AdHoc_Vadere.hostMobile[3].wlan[0].mac.dcf.channelAccess.pendingQueue packetRemoved:sum(packetBytes) 0
attr interpolationmode none
attr title "packets removed, sum(packetBytes)"
scalar IEEE80211_AdHoc_Vadere.hostMobile[3].wlan[0].mac.dcf.channelAccess.inProgressFrames queueLength:max nan
attr interpolationmode sample-hold
attr source "count(packetEnqueued) - count(packetDequeued)"
attr title "queue length, max"
scalar IEEE80211_AdHoc_Vadere.hostMobile[3].wlan[0].mac.dcf.channelAccess.inProgressFrames queueLength:timeavg -nan
attr interpolationmode sample-hold
attr source "count(packetEnqueued) - count(packetDequeued)"
attr title "queue length, timeavg"
scalar IEEE80211_AdHoc_Vadere.hostMobile[3].wlan[0].mac.dcf.channelAccess.contention channelAccessGranted:count 0
attr title "channel access granted, count"
scalar IEEE80211_AdHoc_Vadere.hostMobile[3].wlan[0].mac.dcf.channelAccess.contention stateChanged:count 2
attr interpolationmode none
attr title "contention state changed, count"
scalar IEEE80211_AdHoc_Vadere.hostMobile[3].wlan[0].mac.dcf.channelAccess channelOwnershipChanged:count 0
attr interpolationmode sample-hold
attr title "channel ownership, count"
scalar IEEE80211_AdHoc_Vadere.hostMobile[3].wlan[0].mac.dcf.originatorMacDataService packetAggregated:count 0
attr title "packets aggregated, count"
scalar IEEE80211_AdHoc_Vadere.hostMobile[3].wlan[0].mac.dcf.originatorMacDataService packetFragmented:count 0
attr title "packets fragmented, count"
scalar IEEE80211_AdHoc_Vadere.hostMobile[3].wlan[0].mac.dcf.recipientMacDataService packetDeaggregated:count 0
attr title "packets deaggregated, count"
scalar IEEE80211_AdHoc_Vadere.hostMobile[3].wlan[0].mac.dcf.recipientMacDataService packetDefragmented:count 0
attr title "packets defragmented, count"
scalar IEEE80211_AdHoc_Vadere.hostMobile[3].wlan[0].mac.dcf.recipientMacDataService packetDropDuplicateDetected:count 0
attr interpolationmode none
attr source packetDropReasonIsDuplicateDetected(packetDropped)
attr title "packet drops: duplicate detected, count"
scalar IEEE80211_AdHoc_Vadere.hostMobile[3].wlan[0].mac.dcf.recipientMacDataService packetDropDuplicateDetected:sum(packetBytes) 0
attr interpolationmode none
attr source packetDropReasonIsDuplicateDetected(packetDropped)
attr title "packet drops: duplicate detected, sum(packetBytes)"
scalar IEEE80211_AdHoc_Vadere.hostMobile[3].wlan[0].mac.dcf.recoveryProcedure retryLimitReached:count 0
attr title "retry limit reached, count"
scalar IEEE80211_AdHoc_Vadere.hostMobile[3].wlan[0].mac.dcf frameSequenceFinished:count 0
attr title "finished frame sequences, count"
scalar IEEE80211_AdHoc_Vadere.hostMobile[3].wlan[0].mac.dcf packetReceivedFromPeer:count 0
attr interpolationmode none
attr title "packets received, count"
scalar IEEE80211_AdHoc_Vadere.hostMobile[3].wlan[0].mac.dcf packetReceivedFromPeer:sum(packetBytes) 0
attr interpolationmode none
attr title "packets received, sum(packetBytes)"
scalar IEEE80211_AdHoc_Vadere.hostMobile[3].wlan[0].mac.dcf packetReceivedFromPeerUnicast:count 0
attr interpolationmode none
attr source ieee80211Unicast(packetReceivedFromPeer)
attr title "packets received: unicast, count"
scalar IEEE80211_AdHoc_Vadere.hostMobile[3].wlan[0].mac.dcf packetReceivedFromPeerUnicast:sum(packetBytes) 0
attr interpolationmode none
attr source ieee80211Unicast(packetReceivedFromPeer)
attr title "packets received: unicast, sum(packetBytes)"
scalar IEEE80211_AdHoc_Vadere.hostMobile[3].wlan[0].mac.dcf packetReceivedFromPeerMulticast:count 0
attr interpolationmode none
attr source ieee80211Multicast(packetReceivedFromPeer)
attr title "packets received: multicast, count"
scalar IEEE80211_AdHoc_Vadere.hostMobile[3].wlan[0].mac.dcf packetReceivedFromPeerMulticast:sum(packetBytes) 0
attr interpolationmode none
attr source ieee80211Multicast(packetReceivedFromPeer)
attr title "packets received: multicast, sum(packetBytes)"
scalar IEEE80211_AdHoc_Vadere.hostMobile[3].wlan[0].mac.dcf packetReceivedFromPeerBroadcast:count 0
attr interpolationmode none
attr source ieee80211Broadcast(packetReceivedFromPeer)
attr title "packets received: broadcast, count"
scalar IEEE80211_AdHoc_Vadere.hostMobile[3].wlan[0].mac.dcf packetReceivedFromPeerBroadcast:sum(packetBytes) 0
attr interpolationmode none
attr source ieee80211Broadcast(packetReceivedFromPeer)
attr title "packets received: broadcast, sum(packetBytes)"
scalar IEEE80211_AdHoc_Vadere.hostMobile[3].wlan[0].mac.dcf packetReceivedFromPeerWithRetry:count 0
attr interpolationmode none
attr source ieee80211Retry(packetReceivedFromPeer)
attr title "packets received: with retry, count"
scalar IEEE80211_AdHoc_Vadere.hostMobile[3].wlan[0].mac.dcf packetReceivedFromPeerWithRetry:sum(packetBytes) 0
attr interpolationmode none
attr source ieee80211Retry(packetReceivedFromPeer)
attr title "packets received: with retry, sum(packetBytes)"
scalar IEEE80211_AdHoc_Vadere.hostMobile[3].wlan[0].mac.dcf packetReceivedFromPeerWithoutRetry:count 0
attr interpolationmode none
attr source ieee80211NotRetry(packetReceivedFromPeer)
attr title "packets received: without retry, count"
scalar IEEE80211_AdHoc_Vadere.hostMobile[3].wlan[0].mac.dcf packetReceivedFromPeerWithoutRetry:sum(packetBytes) 0
attr interpolationmode none
attr source ieee80211NotRetry(packetReceivedFromPeer)
attr title "packets received: without retry, sum(packetBytes)"
scalar IEEE80211_AdHoc_Vadere.hostMobile[3].wlan[0].mac.dcf packetSentToPeer:count 0
attr interpolationmode none
attr title "packets sent, count"
scalar IEEE80211_AdHoc_Vadere.hostMobile[3].wlan[0].mac.dcf packetSentToPeer:sum(packetBytes) 0
attr interpolationmode none
attr title "packets sent, sum(packetBytes)"
scalar IEEE80211_AdHoc_Vadere.hostMobile[3].wlan[0].mac.dcf packetSentToPeerUnicast:count 0
attr interpolationmode none
attr source ieee80211Unicast(packetSentToPeer)
attr title "packets sent: unicast, count"
scalar IEEE80211_AdHoc_Vadere.hostMobile[3].wlan[0].mac.dcf packetSentToPeerUnicast:sum(packetBytes) 0
attr interpolationmode none
attr source ieee80211Unicast(packetSentToPeer)
attr title "packets sent: unicast, sum(packetBytes)"
scalar IEEE80211_AdHoc_Vadere.hostMobile[3].wlan[0].mac.dcf packetSentToPeerMulticast:count 0
attr interpolationmode none
attr source ieee80211Multicast(packetSentToPeer)
attr title "packets sent: multicast, count"
scalar IEEE80211_AdHoc_Vadere.hostMobile[3].wlan[0].mac.dcf packetSentToPeerMulticast:sum(packetBytes) 0
attr interpolationmode none
attr source ieee80211Multicast(packetSentToPeer)
attr title "packets sent: multicast, sum(packetBytes)"
scalar IEEE80211_AdHoc_Vadere.hostMobile[3].wlan[0].mac.dcf packetSentToPeerBroadcast:count 0
attr interpolationmode none
attr source ieee80211Broadcast(packetSentToPeer)
attr title "packets sent: broadcast , count"
scalar IEEE80211_AdHoc_Vadere.hostMobile[3].wlan[0].mac.dcf packetSentToPeerBroadcast:sum(packetBytes) 0
attr interpolationmode none
attr source ieee80211Broadcast(packetSentToPeer)
attr title "packets sent: broadcast , sum(packetBytes)"
scalar IEEE80211_AdHoc_Vadere.hostMobile[3].wlan[0].mac.dcf packetSentToPeerWithRetry:count 0
attr interpolationmode none
attr source ieee80211Retry(packetSentToPeer)
attr title "packets sent: with retry, count"
scalar IEEE80211_AdHoc_Vadere.hostMobile[3].wlan[0].mac.dcf packetSentToPeerWithRetry:sum(packetBytes) 0
attr interpolationmode none
attr source ieee80211Retry(packetSentToPeer)
attr title "packets sent: with retry, sum(packetBytes)"
scalar IEEE80211_AdHoc_Vadere.hostMobile[3].wlan[0].mac.dcf packetSentToPeerWithoutRetry:count 0
attr interpolationmode none
attr source ieee80211NotRetry(packetSentToPeer)
attr title "packets sent: without retry, count"
scalar IEEE80211_AdHoc_Vadere.hostMobile[3].wlan[0].mac.dcf packetSentToPeerWithoutRetry:sum(packetBytes) 0
attr interpolationmode none
attr source ieee80211NotRetry(packetSentToPeer)
attr title "packets sent: without retry, sum(packetBytes)"
scalar IEEE80211_AdHoc_Vadere.hostMobile[3].wlan[0].mac.dcf packetDrop:count 0
attr interpolationmode none
attr source packetDropped
attr title "packet drops, count"
scalar IEEE80211_AdHoc_Vadere.hostMobile[3].wlan[0].mac.dcf packetDrop:sum(packetBytes) 0
attr interpolationmode none
attr source packetDropped
attr title "packet drops, sum(packetBytes)"
scalar IEEE80211_AdHoc_Vadere.hostMobile[3].wlan[0].mac.dcf packetDropNotAddressedToUs:count 0
attr interpolationmode none
attr source packetDropReasonIsNotAddressedToUs(packetDropped)
attr title "packet drops: not addressed to us, count"
scalar IEEE80211_AdHoc_Vadere.hostMobile[3].wlan[0].mac.dcf packetDropNotAddressedToUs:sum(packetBytes) 0
attr interpolationmode none
attr source packetDropReasonIsNotAddressedToUs(packetDropped)
attr title "packet drops: not addressed to us, sum(packetBytes)"
scalar IEEE80211_AdHoc_Vadere.hostMobile[3].wlan[0].mac.dcf packetDropQueueOverflow:count 0
attr interpolationmode none
attr source packetDropReasonIsQueueOverflow(packetDropped)
attr title "packet drops: queue overflow, count"
scalar IEEE80211_AdHoc_Vadere.hostMobile[3].wlan[0].mac.dcf packetDropQueueOverflow:sum(packetBytes) 0
attr interpolationmode none
attr source packetDropReasonIsQueueOverflow(packetDropped)
attr title "packet drops: queue overflow, sum(packetBytes)"
scalar IEEE80211_AdHoc_Vadere.hostMobile[3].wlan[0].mac.dcf packetDropRetryLimitReached:count 0
attr interpolationmode none
attr source packetDropReasonIsRetryLimitReached(packetDropped)
attr title "packet drops: retry limit reached, count"
scalar IEEE80211_AdHoc_Vadere.hostMobile[3].wlan[0].mac.dcf packetDropRetryLimitReached:sum(packetBytes) 0
attr interpolationmode none
attr source packetDropReasonIsRetryLimitReached(packetDropped)
attr title "packet drops: retry limit reached, sum(packetBytes)"
scalar IEEE80211_AdHoc_Vadere.hostMobile[3].wlan[0].mac.dcf linkBroken:count 0
attr interpolationmode none
attr title "link breaks, count"
scalar IEEE80211_AdHoc_Vadere.hostMobile[3].wlan[0].mac packetReceivedFromLower:count 0
attr interpolationmode none
attr title "packets received from lower layer, count"
scalar IEEE80211_AdHoc_Vadere.hostMobile[3].wlan[0].mac packetReceivedFromLower:sum(packetBytes) 0
attr interpolationmode none
attr title "packets received from lower layer, sum(packetBytes)"
scalar IEEE80211_AdHoc_Vadere.hostMobile[3].wlan[0].mac packetSentToLower:count 0
attr interpolationmode none
attr title "packets sent to lower layer, count"
scalar IEEE80211_AdHoc_Vadere.hostMobile[3].wlan[0].mac packetSentToLower:sum(packetBytes) 0
attr interpolationmode none
attr title "packets sent to lower layer, sum(packetBytes)"
scalar IEEE80211_AdHoc_Vadere.hostMobile[3].wlan[0].mac packetReceivedFromUpper:count 0
attr interpolationmode none
attr title "packets received from upper layer, count"
scalar IEEE80211_AdHoc_Vadere.hostMobile[3].wlan[0].mac packetReceivedFromUpper:sum(packetBytes) 0
attr interpolationmode none
attr title "packets received from upper layer, sum(packetBytes)"
scalar IEEE80211_AdHoc_Vadere.hostMobile[3].wlan[0].mac packetSentToUpper:count 0
attr interpolationmode none
attr title "packets sent to upper layer, count"
scalar IEEE80211_AdHoc_Vadere.hostMobile[3].wlan[0].mac packetSentToUpper:sum(packetBytes) 0
attr interpolationmode none
attr title "packets sent to upper layer, sum(packetBytes)"
scalar IEEE80211_AdHoc_Vadere.hostMobile[3].wlan[0].mac packetDrop:count 0
attr interpolationmode none
attr source packetDropped
attr title "packet drops, count"
scalar IEEE80211_AdHoc_Vadere.hostMobile[3].wlan[0].mac packetDrop:sum(packetBytes) 0
attr interpolationmode none
attr source packetDropped
attr title "packet drops, sum(packetBytes)"
scalar IEEE80211_AdHoc_Vadere.hostMobile[3].wlan[0].mac packetDropIncorrectlyReceived:count 0
attr interpolationmode none
attr source packetDropReasonIsIncorrectlyReceived(packetDropped)
attr title "packet drops: incorrectly received, count"
scalar IEEE80211_AdHoc_Vadere.hostMobile[3].wlan[0].mac packetDropIncorrectlyReceived:sum(packetBytes) 0
attr interpolationmode none
attr source packetDropReasonIsIncorrectlyReceived(packetDropped)
attr title "packet drops: incorrectly received, sum(packetBytes)"
scalar IEEE80211_AdHoc_Vadere.hostMobile[3].wlan[0].mac packetDropNotAddressedToUs:count 0
attr interpolationmode none
attr source packetDropReasonIsNotAddressedToUs(packetDropped)
attr title "packet drops: not addressed to us, count"
scalar IEEE80211_AdHoc_Vadere.hostMobile[3].wlan[0].mac packetDropNotAddressedToUs:sum(packetBytes) 0
attr interpolationmode none
attr source packetDropReasonIsNotAddressedToUs(packetDropped)
attr title "packet drops: not addressed to us, sum(packetBytes)"
scalar IEEE80211_AdHoc_Vadere.hostMobile[3].wlan[0].mac packetDropQueueOverflow:count 0
attr interpolationmode none
attr source packetDropReasonIsQueueOverflow(packetDropped)
attr title "packet drops: queue overflow, count"
scalar IEEE80211_AdHoc_Vadere.hostMobile[3].wlan[0].mac packetDropQueueOverflow:sum(packetBytes) 0
attr interpolationmode none
attr source packetDropReasonIsQueueOverflow(packetDropped)
attr title "packet drops: queue overflow, sum(packetBytes)"
scalar IEEE80211_AdHoc_Vadere.hostMobile[3].wlan[0].mac packetDropRetryLimitReached:count 0
attr interpolationmode none
attr source packetDropReasonIsRetryLimitReached(packetDropped)
attr title "packet drops: retry limit reached, count"
scalar IEEE80211_AdHoc_Vadere.hostMobile[3].wlan[0].mac packetDropRetryLimitReached:sum(packetBytes) 0
attr interpolationmode none
attr source packetDropReasonIsRetryLimitReached(packetDropped)
attr title "packet drops: retry limit reached, sum(packetBytes)"
scalar IEEE80211_AdHoc_Vadere.hostMobile[3].wlan[0].mac packetDropDuplicateDetected:count 0
attr interpolationmode none
attr source packetDropReasonIsDuplicateDetected(packetDropped)
attr title "packet drops: duplicate detected, count"
scalar IEEE80211_AdHoc_Vadere.hostMobile[3].wlan[0].mac packetDropDuplicateDetected:sum(packetBytes) 0
attr interpolationmode none
attr source packetDropReasonIsDuplicateDetected(packetDropped)
attr title "packet drops: duplicate detected, sum(packetBytes)"
scalar IEEE80211_AdHoc_Vadere.hostMobile[3].wlan[0].mac packetDropOther:count 0
attr interpolationmode none
attr source packetDropReasonIsOther(packetDropped)
attr title "packet drops: other, count"
scalar IEEE80211_AdHoc_Vadere.hostMobile[3].wlan[0].mac packetDropOther:sum(packetBytes) 0
attr interpolationmode none
attr source packetDropReasonIsOther(packetDropped)
attr title "packet drops: other, sum(packetBytes)"
scalar IEEE80211_AdHoc_Vadere.hostMobile[3].wlan[0].mac linkBroken:count 0
attr interpolationmode none
attr title "link breaks, count"
scalar IEEE80211_AdHoc_Vadere.hostMobile[3].wlan[0].radio radioMode:count 3
attr interpolationmode sample-hold
attr source radioModeChanged
attr title "Radio mode, count"
scalar IEEE80211_AdHoc_Vadere.hostMobile[3].wlan[0].radio receptionState:count 1
attr interpolationmode sample-hold
attr source receptionStateChanged
attr title "Radio reception state, count"
scalar IEEE80211_AdHoc_Vadere.hostMobile[3].wlan[0].radio transmissionState:count 0
attr interpolationmode sample-hold
attr source transmissionStateChanged
attr title "Radio transmission state, count"
scalar IEEE80211_AdHoc_Vadere.hostMobile[3].ipv4.ip packetDropAddressResolutionFailed:count 0
attr interpolationmode none
attr source packetDropReasonIsAddressResolutionFailed(packetDropped)
attr title "packet drop: address resolution failed, count"
scalar IEEE80211_AdHoc_Vadere.hostMobile[3].ipv4.ip packetDropAddressResolutionFailed:sum(packetBytes) 0
attr interpolationmode none
attr source packetDropReasonIsAddressResolutionFailed(packetDropped)
attr title "packet drop: address resolution failed, sum(packetBytes)"
scalar IEEE80211_AdHoc_Vadere.hostMobile[3].ipv4.ip packetDropHopLimitReached:count 0
attr interpolationmode none
attr source packetDropReasonIsHopLimitReached(packetDropped)
attr title "packet drop: hop limit reached, count"
scalar IEEE80211_AdHoc_Vadere.hostMobile[3].ipv4.ip packetDropHopLimitReached:sum(packetBytes) 0
attr interpolationmode none
attr source packetDropReasonIsHopLimitReached(packetDropped)
attr title "packet drop: hop limit reached, sum(packetBytes)"
scalar IEEE80211_AdHoc_Vadere.hostMobile[3].ipv4.ip packetDropForwardingDisabled:count 0
attr interpolationmode none
attr source packetDropReasonIsForwardingDisabled(packetDropped)
attr title "packet drop: forwarding disabled, count"
scalar IEEE80211_AdHoc_Vadere.hostMobile[3].ipv4.ip packetDropForwardingDisabled:sum(packetBytes) 0
attr interpolationmode none
attr source packetDropReasonIsForwardingDisabled(packetDropped)
attr title "packet drop: forwarding disabled, sum(packetBytes)"
scalar IEEE80211_AdHoc_Vadere.hostMobile[3].ipv4.ip packetDropNoInterfaceFound:count 0
attr interpolationmode none
attr source packetDropReasonIsNoInterfaceFound(packetDropped)
attr title "packet drop: no interface found, count"
scalar IEEE80211_AdHoc_Vadere.hostMobile[3].ipv4.ip packetDropNoInterfaceFound:sum(packetBytes) 0
attr interpolationmode none
attr source packetDropReasonIsNoInterfaceFound(packetDropped)
attr title "packet drop: no interface found, sum(packetBytes)"
scalar IEEE80211_AdHoc_Vadere.hostMobile[3].ipv4.ip packetDropNoRouteFound:count 0
attr interpolationmode none
attr source packetDropReasonIsNoRouteFound(packetDropped)
attr title "packet drop: no route found, count"
scalar IEEE80211_AdHoc_Vadere.hostMobile[3].ipv4.ip packetDropNoRouteFound:sum(packetBytes) 0
attr interpolationmode none
attr source packetDropReasonIsNoRouteFound(packetDropped)
attr title "packet drop: no route found, sum(packetBytes)"
scalar IEEE80211_AdHoc_Vadere.hostMobile[3].ipv4.ip packetDropUndefined:count 0
attr interpolationmode none
attr source packetDropReasonIsUndefined(packetDropped)
attr title "packet drop: undefined, count"
scalar IEEE80211_AdHoc_Vadere.hostMobile[3].ipv4.ip packetDropUndefined:sum(packetBytes) 0
attr interpolationmode none
attr source packetDropReasonIsUndefined(packetDropped)
attr title "packet drop: undefined, sum(packetBytes)"
scalar IEEE80211_AdHoc_Vadere.hostMobile[3].ipv4.arp arpResolutionFailed:count 0
attr title "ARP failed resolutions, count"
scalar IEEE80211_AdHoc_Vadere.hostMobile[3].ipv4.arp arpResolutionCompleted:count 0
attr title "ARP completed resolutions, count"
scalar IEEE80211_AdHoc_Vadere.hostMobile[3].ipv4.arp arpResolutionInitiated:count 0
attr title "ARP initiated resolutions, count"
scalar IEEE80211_AdHoc_Vadere.hostMobile[3].ipv4.arp arpReplySent:count 0
attr source arpReplySent
attr title "ARP replies sent, count"
scalar IEEE80211_AdHoc_Vadere.hostMobile[3].ipv4.arp arpReplySent:sum(packetBytes) 0
attr source arpReplySent
attr title "ARP replies sent, sum(packetBytes)"
scalar IEEE80211_AdHoc_Vadere.hostMobile[3].ipv4.arp arpRequestSent:count 0
attr source arpRequestSent
attr title "ARP request sent, count"
scalar IEEE80211_AdHoc_Vadere.hostMobile[3].ipv4.arp arpRequestSent:sum(packetBytes) 0
attr source arpRequestSent
attr title "ARP request sent, sum(packetBytes)"
scalar IEEE80211_AdHoc_Vadere.hostMobile[3].udp packetReceived:count 0
attr interpolationmode none
attr source packetReceived
attr title "packets received, count"
scalar IEEE80211_AdHoc_Vadere.hostMobile[3].udp packetReceived:sum(packetBytes) 0
attr interpolationmode none
attr source packetReceived
attr title "packets received, sum(packetBytes)"
scalar IEEE80211_AdHoc_Vadere.hostMobile[3].udp packetSent:count 0
attr interpolationmode none
attr source packetSent
attr title "packets sent, count"
scalar IEEE80211_AdHoc_Vadere.hostMobile[3].udp packetSent:sum(packetBytes) 0
attr interpolationmode none
attr source packetSent
attr title "packets sent, sum(packetBytes)"
scalar IEEE80211_AdHoc_Vadere.hostMobile[3].udp passedUpPk:count 0
attr interpolationmode none
attr source packetSentToUpper
attr title "packets passed up, count"
scalar IEEE80211_AdHoc_Vadere.hostMobile[3].udp droppedPkWrongPort:count 0
attr interpolationmode none
attr source packetDropReasonIsNoPortFound(packetDropped)
attr title "packets dropped (wrong port), count"
scalar IEEE80211_AdHoc_Vadere.hostMobile[3].udp droppedPkBadChecksum:count 0
attr interpolationmode none
attr source packetDropReasonIsIncorrectlyReceived(packetDropped)
attr title "packets dropped (checksum error), count"
statistic IEEE80211_AdHoc_Vadere.hostMobile[3].app[0] incidentAge:stats
field count 0
field mean -nan
field stddev nan
field min nan
field max nan
field sum 0
field sqrsum 0
attr interpolationmode none
attr source incidentAge(packetReceived)
attr title "incidentAge, stats"
attr unit s
statistic IEEE80211_AdHoc_Vadere.hostMobile[3].app[0] lastHopAge:stats
field count 0
field mean -nan
field stddev nan
field min nan
field max nan
field sum 0
field sqrsum 0
attr interpolationmode none
attr source lastHopAge(packetReceived)
attr title "lastHopAge, stats"
attr unit s
scalar IEEE80211_AdHoc_Vadere.hostMobile[3].app[0] packetReceived:count 0
attr interpolationmode none
attr source packetReceived
attr title "packets received, count"
scalar IEEE80211_AdHoc_Vadere.hostMobile[3].app[0] packetReceived:sum(packetBytes) 0
attr interpolationmode none
attr source packetReceived
attr title "packets received, sum(packetBytes)"
scalar IEEE80211_AdHoc_Vadere.hostMobile[3].app[0] packetSent:count 0
attr interpolationmode none
attr source packetSent
attr title "packets sent, count"
scalar IEEE80211_AdHoc_Vadere.hostMobile[3].app[0] packetSent:sum(packetBytes) 0
attr interpolationmode none
attr source packetSent
attr title "packets sent, sum(packetBytes)"
scalar IEEE80211_AdHoc_Vadere.hostMobile[3].app[1] "packets sent" 0
scalar IEEE80211_AdHoc_Vadere.hostMobile[3].app[1] "packets received" 0
scalar IEEE80211_AdHoc_Vadere.hostMobile[3].app[1] packetReceived:count 0
attr interpolationmode none
attr source packetReceived
attr title "packets received, count"
scalar IEEE80211_AdHoc_Vadere.hostMobile[3].app[1] packetReceived:sum(packetBytes) 0
attr interpolationmode none
attr source packetReceived
attr title "packets received, sum(packetBytes)"
statistic IEEE80211_AdHoc_Vadere.hostMobile[3].app[1] rcvdPkLifetime:stats
field count 0
field mean -nan
field stddev nan
field min nan
field max nan
field sum 0
field sqrsum 0
attr interpolationmode none
attr source dataAge(packetReceived)
attr title "received packet lifetime, stats"
attr unit s
scalar IEEE80211_AdHoc_Vadere.hostMobile[3].app[1] packetSent:count 0
attr interpolationmode none
attr source packetSent
attr title "packets sent, count"
scalar IEEE80211_AdHoc_Vadere.hostMobile[3].app[1] packetSent:sum(packetBytes) 0
attr interpolationmode none
attr source packetSent
attr title "packets sent, sum(packetBytes)"
scalar IEEE80211_AdHoc_Vadere.hostMobile[120].app[0] internalId 7609
scalar IEEE80211_AdHoc_Vadere.hostMobile[120].app[0] moduleCreationTime 85.6
attr unit s
scalar IEEE80211_AdHoc_Vadere.hostMobile[120].app[0] externalId 121
scalar IEEE80211_AdHoc_Vadere.hostMobile[121].app[0] internalId 7671
scalar IEEE80211_AdHoc_Vadere.hostMobile[121].app[0] moduleCreationTime 85.6
attr unit s
scalar IEEE80211_AdHoc_Vadere.hostMobile[121].app[0] externalId 122
scalar IEEE80211_AdHoc_Vadere.hostMobile[122].app[0] internalId 7733
scalar IEEE80211_AdHoc_Vadere.hostMobile[122].app[0] moduleCreationTime 86.8
attr unit s
scalar IEEE80211_AdHoc_Vadere.hostMobile[122].app[0] externalId 123
scalar IEEE80211_AdHoc_Vadere.hostMobile[123].app[0] internalId 7795
scalar IEEE80211_AdHoc_Vadere.hostMobile[123].app[0] moduleCreationTime 88.4
attr unit s
scalar IEEE80211_AdHoc_Vadere.hostMobile[123].app[0] externalId 124
scalar IEEE80211_AdHoc_Vadere.hostMobile[124].app[0] internalId 7857
scalar IEEE80211_AdHoc_Vadere.hostMobile[124].app[0] moduleCreationTime 88.8
attr unit s
scalar IEEE80211_AdHoc_Vadere.hostMobile[124].app[0] externalId 125
scalar IEEE80211_AdHoc_Vadere.hostMobile[125].app[0] internalId 7919
scalar IEEE80211_AdHoc_Vadere.hostMobile[125].app[0] moduleCreationTime 89.2
attr unit s
scalar IEEE80211_AdHoc_Vadere.hostMobile[125].app[0] externalId 126
scalar IEEE80211_AdHoc_Vadere.hostMobile[126].app[0] internalId 7981
scalar IEEE80211_AdHoc_Vadere.hostMobile[126].app[0] moduleCreationTime 89.2
attr unit s
scalar IEEE80211_AdHoc_Vadere.hostMobile[126].app[0] externalId 127
scalar IEEE80211_AdHoc_Vadere.hostMobile[127].app[0] internalId 8043
scalar IEEE80211_AdHoc_Vadere.hostMobile[127].app[0] moduleCreationTime 89.6
attr unit s
scalar IEEE80211_AdHoc_Vadere.hostMobile[127].app[0] externalId 128
scalar IEEE80211_AdHoc_Vadere.hostMobile[128].app[0] internalId 8105
scalar IEEE80211_AdHoc_Vadere.hostMobile[128].app[0] moduleCreationTime 91.6
attr unit s
scalar IEEE80211_AdHoc_Vadere.hostMobile[128].app[0] externalId 129
scalar IEEE80211_AdHoc_Vadere.hostMobile[129].app[0] internalId 8167
scalar IEEE80211_AdHoc_Vadere.hostMobile[129].app[0] moduleCreationTime 92
attr unit s
scalar IEEE80211_AdHoc_Vadere.hostMobile[129].app[0] externalId 130
scalar IEEE80211_AdHoc_Vadere.hostMobile[130].app[0] internalId 8229
scalar IEEE80211_AdHoc_Vadere.hostMobile[130].app[0] moduleCreationTime 92.8
attr unit s
scalar IEEE80211_AdHoc_Vadere.hostMobile[130].app[0] externalId 131
scalar IEEE80211_AdHoc_Vadere.hostMobile[131].app[0] internalId 8291
scalar IEEE80211_AdHoc_Vadere.hostMobile[131].app[0] moduleCreationTime 93.2
attr unit s
scalar IEEE80211_AdHoc_Vadere.hostMobile[131].app[0] externalId 132
scalar IEEE80211_AdHoc_Vadere.hostMobile[132].app[0] internalId 8353
scalar IEEE80211_AdHoc_Vadere.hostMobile[132].app[0] moduleCreationTime 93.2
attr unit s
scalar IEEE80211_AdHoc_Vadere.hostMobile[132].app[0] externalId 133
scalar IEEE80211_AdHoc_Vadere.hostMobile[133].app[0] internalId 8415
scalar IEEE80211_AdHoc_Vadere.hostMobile[133].app[0] moduleCreationTime 94
attr unit s
scalar IEEE80211_AdHoc_Vadere.hostMobile[133].app[0] externalId 134
scalar IEEE80211_AdHoc_Vadere.hostMobile[134].app[0] internalId 8477
scalar IEEE80211_AdHoc_Vadere.hostMobile[134].app[0] moduleCreationTime 94.4
attr unit s
scalar IEEE80211_AdHoc_Vadere.hostMobile[134].app[0] externalId 135
scalar IEEE80211_AdHoc_Vadere.hostMobile[135].app[0] internalId 8539
scalar IEEE80211_AdHoc_Vadere.hostMobile[135].app[0] moduleCreationTime 96
attr unit s
scalar IEEE80211_AdHoc_Vadere.hostMobile[135].app[0] externalId 136
scalar IEEE80211_AdHoc_Vadere.hostMobile[136].app[0] internalId 8601
scalar IEEE80211_AdHoc_Vadere.hostMobile[136].app[0] moduleCreationTime 99.2
attr unit s
scalar IEEE80211_AdHoc_Vadere.hostMobile[136].app[0] externalId 137
scalar IEEE80211_AdHoc_Vadere.hostMobile[137].app[0] internalId 8663
scalar IEEE80211_AdHoc_Vadere.hostMobile[137].app[0] moduleCreationTime 99.6
attr unit s
scalar IEEE80211_AdHoc_Vadere.hostMobile[137].app[0] externalId 138
scalar IEEE80211_AdHoc_Vadere.radioMedium.propagation "Arrival computation count" 43470
scalar IEEE80211_AdHoc_Vadere.radioMedium "transmission count" 315
scalar IEEE80211_AdHoc_Vadere.radioMedium "signal send count" 43470
scalar IEEE80211_AdHoc_Vadere.radioMedium "reception computation count" 43470
scalar IEEE80211_AdHoc_Vadere.radioMedium "interference computation count" 97254
scalar IEEE80211_AdHoc_Vadere.radioMedium "reception decision computation count" 18084
scalar IEEE80211_AdHoc_Vadere.radioMedium "listening decision computation count" 36477
scalar IEEE80211_AdHoc_Vadere.radioMedium "reception cache hit" 88.139380693957
attr unit %
scalar IEEE80211_AdHoc_Vadere.radioMedium "interference cache hit" 66.666666666667
attr unit %
scalar IEEE80211_AdHoc_Vadere.radioMedium "noise cache hit" 0
attr unit %
scalar IEEE80211_AdHoc_Vadere.radioMedium "snir cache hit" 50
attr unit %
scalar IEEE80211_AdHoc_Vadere.radioMedium "reception decision cache hit" 50
attr unit %
scalar IEEE80211_AdHoc_Vadere.radioMedium "reception result cache hit" 0
attr unit %
scalar IEEE80211_AdHoc_Vadere.station[0].lo[0].lo rcvdPkFromHl:count 2
attr interpolationmode none
attr source packetReceivedFromUpper
attr title "packets received from higher layer, count"
scalar IEEE80211_AdHoc_Vadere.station[0].lo[0].lo rcvdPkFromHl:sum(packetBytes) 6056
attr interpolationmode none
attr source packetReceivedFromUpper
attr title "packets received from higher layer, sum(packetBytes)"
scalar IEEE80211_AdHoc_Vadere.station[0].lo[0].lo passedUpPk:count 2
attr interpolationmode none
attr source packetSentToUpper
attr title "packets passed to higher layer, count"
scalar IEEE80211_AdHoc_Vadere.station[0].lo[0].lo passedUpPk:sum(packetBytes) 6056
attr interpolationmode none
attr source packetSentToUpper
attr title "packets passed to higher layer, sum(packetBytes)"
scalar IEEE80211_AdHoc_Vadere.station[0].wlan[0].mac.dcf.channelAccess.pendingQueue packetPopped:count 4
attr interpolationmode none
attr title "packet popped, count"
scalar IEEE80211_AdHoc_Vadere.station[0].wlan[0].mac.dcf.channelAccess.pendingQueue packetPopped:sum(packetBytes) 6240
attr interpolationmode none
attr title "packet popped, sum(packetBytes)"
scalar IEEE80211_AdHoc_Vadere.station[0].wlan[0].mac.dcf.channelAccess.pendingQueue queueLength:max 2
attr interpolationmode sample-hold
attr source "count(packetPushed) - count(packetPopped) - count(packetRemoved) - count(packetDropped)"
attr title "queue length, max"
scalar IEEE80211_AdHoc_Vadere.station[0].wlan[0].mac.dcf.channelAccess.pendingQueue queueLength:timeavg 0.0016666666666667
attr interpolationmode sample-hold
attr source "count(packetPushed) - count(packetPopped) - count(packetRemoved) - count(packetDropped)"
attr title "queue length, timeavg"
scalar IEEE80211_AdHoc_Vadere.station[0].wlan[0].mac.dcf.channelAccess.pendingQueue packetPushed:count 4
attr interpolationmode none
attr title "packet pushed, count"
scalar IEEE80211_AdHoc_Vadere.station[0].wlan[0].mac.dcf.channelAccess.pendingQueue packetPushed:sum(packetBytes) 6240
attr interpolationmode none
attr title "packet pushed, sum(packetBytes)"
scalar IEEE80211_AdHoc_Vadere.station[0].wlan[0].mac.dcf.channelAccess.pendingQueue packetDropQueueOverflow:count 0
attr interpolationmode none
attr source packetDropReasonIsQueueOverflow(packetDropped)
attr title "packet drops: queue overflow, count"
scalar IEEE80211_AdHoc_Vadere.station[0].wlan[0].mac.dcf.channelAccess.pendingQueue packetDropQueueOverflow:sum(packetBytes) 0
attr interpolationmode none
attr source packetDropReasonIsQueueOverflow(packetDropped)
attr title "packet drops: queue overflow, sum(packetBytes)"
scalar IEEE80211_AdHoc_Vadere.station[0].wlan[0].mac.dcf.channelAccess.pendingQueue packetRemoved:count 0
attr interpolationmode none
attr title "packets removed, count"
scalar IEEE80211_AdHoc_Vadere.station[0].wlan[0].mac.dcf.channelAccess.pendingQueue packetRemoved:sum(packetBytes) 0
attr interpolationmode none
attr title "packets removed, sum(packetBytes)"
scalar IEEE80211_AdHoc_Vadere.station[0].wlan[0].mac.dcf.channelAccess.inProgressFrames queueLength:max 2
attr interpolationmode sample-hold
attr source "count(packetEnqueued) - count(packetDequeued)"
attr title "queue length, max"
scalar IEEE80211_AdHoc_Vadere.station[0].wlan[0].mac.dcf.channelAccess.inProgressFrames queueLength:timeavg 0.038845308630833
attr interpolationmode sample-hold
attr source "count(packetEnqueued) - count(packetDequeued)"
attr title "queue length, timeavg"
scalar IEEE80211_AdHoc_Vadere.station[0].wlan[0].mac.dcf.channelAccess.contention channelAccessGranted:count 6
attr title "channel access granted, count"
scalar IEEE80211_AdHoc_Vadere.station[0].wlan[0].mac.dcf.channelAccess.contention stateChanged:count 550
attr interpolationmode none
attr title "contention state changed, count"
scalar IEEE80211_AdHoc_Vadere.station[0].wlan[0].mac.dcf.channelAccess channelOwnershipChanged:count 12
attr interpolationmode sample-hold
attr title "channel ownership, count"
scalar IEEE80211_AdHoc_Vadere.station[0].wlan[0].mac.dcf.originatorMacDataService packetAggregated:count 0
attr title "packets aggregated, count"
scalar IEEE80211_AdHoc_Vadere.station[0].wlan[0].mac.dcf.originatorMacDataService packetFragmented:count 2
attr title "packets fragmented, count"
scalar IEEE80211_AdHoc_Vadere.station[0].wlan[0].mac.dcf.recipientMacDataService packetDeaggregated:count 0
attr title "packets deaggregated, count"
scalar IEEE80211_AdHoc_Vadere.station[0].wlan[0].mac.dcf.recipientMacDataService packetDefragmented:count 39
attr title "packets defragmented, count"
scalar IEEE80211_AdHoc_Vadere.station[0].wlan[0].mac.dcf.recipientMacDataService packetDropDuplicateDetected:count 0
attr interpolationmode none
attr source packetDropReasonIsDuplicateDetected(packetDropped)
attr title "packet drops: duplicate detected, count"
scalar IEEE80211_AdHoc_Vadere.station[0].wlan[0].mac.dcf.recipientMacDataService packetDropDuplicateDetected:sum(packetBytes) 0
attr interpolationmode none
attr source packetDropReasonIsDuplicateDetected(packetDropped)
attr title "packet drops: duplicate detected, sum(packetBytes)"
scalar IEEE80211_AdHoc_Vadere.station[0].wlan[0].mac.dcf.recoveryProcedure retryLimitReached:count 0
attr title "retry limit reached, count"
scalar IEEE80211_AdHoc_Vadere.station[0].wlan[0].mac.dcf frameSequenceFinished:count 6
attr title "finished frame sequences, count"
scalar IEEE80211_AdHoc_Vadere.station[0].wlan[0].mac.dcf packetReceivedFromPeer:count 84
attr interpolationmode none
attr title "packets received, count"
scalar IEEE80211_AdHoc_Vadere.station[0].wlan[0].mac.dcf packetReceivedFromPeer:sum(packetBytes) 82180
attr interpolationmode none
attr title "packets received, sum(packetBytes)"
scalar IEEE80211_AdHoc_Vadere.station[0].wlan[0].mac.dcf packetReceivedFromPeerUnicast:count 0
attr interpolationmode none
attr source ieee80211Unicast(packetReceivedFromPeer)
attr title "packets received: unicast, count"
scalar IEEE80211_AdHoc_Vadere.station[0].wlan[0].mac.dcf packetReceivedFromPeerUnicast:sum(packetBytes) 0
attr interpolationmode none
attr source ieee80211Unicast(packetReceivedFromPeer)
attr title "packets received: unicast, sum(packetBytes)"
scalar IEEE80211_AdHoc_Vadere.station[0].wlan[0].mac.dcf packetReceivedFromPeerMulticast:count 84
attr interpolationmode none
attr source ieee80211Multicast(packetReceivedFromPeer)
attr title "packets received: multicast, count"
scalar IEEE80211_AdHoc_Vadere.station[0].wlan[0].mac.dcf packetReceivedFromPeerMulticast:sum(packetBytes) 82180
attr interpolationmode none
attr source ieee80211Multicast(packetReceivedFromPeer)
attr title "packets received: multicast, sum(packetBytes)"
scalar IEEE80211_AdHoc_Vadere.station[0].wlan[0].mac.dcf packetReceivedFromPeerBroadcast:count 0
attr interpolationmode none
attr source ieee80211Broadcast(packetReceivedFromPeer)
attr title "packets received: broadcast, count"
scalar IEEE80211_AdHoc_Vadere.station[0].wlan[0].mac.dcf packetReceivedFromPeerBroadcast:sum(packetBytes) 0
attr interpolationmode none
attr source ieee80211Broadcast(packetReceivedFromPeer)
attr title "packets received: broadcast, sum(packetBytes)"
scalar IEEE80211_AdHoc_Vadere.station[0].wlan[0].mac.dcf packetReceivedFromPeerWithRetry:count 0
attr interpolationmode none
attr source ieee80211Retry(packetReceivedFromPeer)
attr title "packets received: with retry, count"
scalar IEEE80211_AdHoc_Vadere.station[0].wlan[0].mac.dcf packetReceivedFromPeerWithRetry:sum(packetBytes) 0
attr interpolationmode none
attr source ieee80211Retry(packetReceivedFromPeer)
attr title "packets received: with retry, sum(packetBytes)"
scalar IEEE80211_AdHoc_Vadere.station[0].wlan[0].mac.dcf packetReceivedFromPeerWithoutRetry:count 84
attr interpolationmode none
attr source ieee80211NotRetry(packetReceivedFromPeer)
attr title "packets received: without retry, count"
scalar IEEE80211_AdHoc_Vadere.station[0].wlan[0].mac.dcf packetReceivedFromPeerWithoutRetry:sum(packetBytes) 82180
attr interpolationmode none
attr source ieee80211NotRetry(packetReceivedFromPeer)
attr title "packets received: without retry, sum(packetBytes)"
scalar IEEE80211_AdHoc_Vadere.station[0].wlan[0].mac.dcf packetSentToPeer:count 6
attr interpolationmode none
attr title "packets sent, count"
scalar IEEE80211_AdHoc_Vadere.station[0].wlan[0].mac.dcf packetSentToPeer:sum(packetBytes) 6296
attr interpolationmode none
attr title "packets sent, sum(packetBytes)"
scalar IEEE80211_AdHoc_Vadere.station[0].wlan[0].mac.dcf packetSentToPeerUnicast:count 0
attr interpolationmode none
attr source ieee80211Unicast(packetSentToPeer)
attr title "packets sent: unicast, count"
scalar IEEE80211_AdHoc_Vadere.station[0].wlan[0].mac.dcf packetSentToPeerUnicast:sum(packetBytes) 0
attr interpolationmode none
attr source ieee80211Unicast(packetSentToPeer)
attr title "packets sent: unicast, sum(packetBytes)"
scalar IEEE80211_AdHoc_Vadere.station[0].wlan[0].mac.dcf packetSentToPeerMulticast:count 6
attr interpolationmode none
attr source ieee80211Multicast(packetSentToPeer)
attr title "packets sent: multicast, count"
scalar IEEE80211_AdHoc_Vadere.station[0].wlan[0].mac.dcf packetSentToPeerMulticast:sum(packetBytes) 6296
attr interpolationmode none
attr source ieee80211Multicast(packetSentToPeer)
attr title "packets sent: multicast, sum(packetBytes)"
scalar IEEE80211_AdHoc_Vadere.station[0].wlan[0].mac.dcf packetSentToPeerBroadcast:count 0
attr interpolationmode none
attr source ieee80211Broadcast(packetSentToPeer)
attr title "packets sent: broadcast , count"
scalar IEEE80211_AdHoc_Vadere.station[0].wlan[0].mac.dcf packetSentToPeerBroadcast:sum(packetBytes) 0
attr interpolationmode none
attr source ieee80211Broadcast(packetSentToPeer)
attr title "packets sent: broadcast , sum(packetBytes)"
scalar IEEE80211_AdHoc_Vadere.station[0].wlan[0].mac.dcf packetSentToPeerWithRetry:count 0
attr interpolationmode none
attr source ieee80211Retry(packetSentToPeer)
attr title "packets sent: with retry, count"
scalar IEEE80211_AdHoc_Vadere.station[0].wlan[0].mac.dcf packetSentToPeerWithRetry:sum(packetBytes) 0
attr interpolationmode none
attr source ieee80211Retry(packetSentToPeer)
attr title "packets sent: with retry, sum(packetBytes)"
scalar IEEE80211_AdHoc_Vadere.station[0].wlan[0].mac.dcf packetSentToPeerWithoutRetry:count 6
attr interpolationmode none
attr source ieee80211NotRetry(packetSentToPeer)
attr title "packets sent: without retry, count"
scalar IEEE80211_AdHoc_Vadere.station[0].wlan[0].mac.dcf packetSentToPeerWithoutRetry:sum(packetBytes) 6296
attr interpolationmode none
attr source ieee80211NotRetry(packetSentToPeer)
attr title "packets sent: without retry, sum(packetBytes)"
scalar IEEE80211_AdHoc_Vadere.station[0].wlan[0].mac.dcf packetDrop:count 0
attr interpolationmode none
attr source packetDropped
attr title "packet drops, count"
scalar IEEE80211_AdHoc_Vadere.station[0].wlan[0].mac.dcf packetDrop:sum(packetBytes) 0
attr interpolationmode none
attr source packetDropped
attr title "packet drops, sum(packetBytes)"
scalar IEEE80211_AdHoc_Vadere.station[0].wlan[0].mac.dcf packetDropNotAddressedToUs:count 0
attr interpolationmode none
attr source packetDropReasonIsNotAddressedToUs(packetDropped)
attr title "packet drops: not addressed to us, count"
scalar IEEE80211_AdHoc_Vadere.station[0].wlan[0].mac.dcf packetDropNotAddressedToUs:sum(packetBytes) 0
attr interpolationmode none
attr source packetDropReasonIsNotAddressedToUs(packetDropped)
attr title "packet drops: not addressed to us, sum(packetBytes)"
scalar IEEE80211_AdHoc_Vadere.station[0].wlan[0].mac.dcf packetDropQueueOverflow:count 0
attr interpolationmode none
attr source packetDropReasonIsQueueOverflow(packetDropped)
attr title "packet drops: queue overflow, count"
scalar IEEE80211_AdHoc_Vadere.station[0].wlan[0].mac.dcf packetDropQueueOverflow:sum(packetBytes) 0
attr interpolationmode none
attr source packetDropReasonIsQueueOverflow(packetDropped)
attr title "packet drops: queue overflow, sum(packetBytes)"
scalar IEEE80211_AdHoc_Vadere.station[0].wlan[0].mac.dcf packetDropRetryLimitReached:count 0
attr interpolationmode none
attr source packetDropReasonIsRetryLimitReached(packetDropped)
attr title "packet drops: retry limit reached, count"
scalar IEEE80211_AdHoc_Vadere.station[0].wlan[0].mac.dcf packetDropRetryLimitReached:sum(packetBytes) 0
attr interpolationmode none
attr source packetDropReasonIsRetryLimitReached(packetDropped)
attr title "packet drops: retry limit reached, sum(packetBytes)"
scalar IEEE80211_AdHoc_Vadere.station[0].wlan[0].mac.dcf linkBroken:count 0
attr interpolationmode none
attr title "link breaks, count"
scalar IEEE80211_AdHoc_Vadere.station[0].wlan[0].mac packetReceivedFromLower:count 128
attr interpolationmode none
attr title "packets received from lower layer, count"
scalar IEEE80211_AdHoc_Vadere.station[0].wlan[0].mac packetReceivedFromLower:sum(packetBytes) 124956
attr interpolationmode none
attr title "packets received from lower layer, sum(packetBytes)"
scalar IEEE80211_AdHoc_Vadere.station[0].wlan[0].mac packetSentToLower:count 6
attr interpolationmode none
attr title "packets sent to lower layer, count"
scalar IEEE80211_AdHoc_Vadere.station[0].wlan[0].mac packetSentToLower:sum(packetBytes) 6296
attr interpolationmode none
attr title "packets sent to lower layer, sum(packetBytes)"
scalar IEEE80211_AdHoc_Vadere.station[0].wlan[0].mac packetReceivedFromUpper:count 4
attr interpolationmode none
attr title "packets received from upper layer, count"
scalar IEEE80211_AdHoc_Vadere.station[0].wlan[0].mac packetReceivedFromUpper:sum(packetBytes) 6128
attr interpolationmode none
attr title "packets received from upper layer, sum(packetBytes)"
scalar IEEE80211_AdHoc_Vadere.station[0].wlan[0].mac packetSentToUpper:count 39
attr interpolationmode none
attr title "packets sent to upper layer, count"
scalar IEEE80211_AdHoc_Vadere.station[0].wlan[0].mac packetSentToUpper:sum(packetBytes) 41900
attr interpolationmode none
attr title "packets sent to upper layer, sum(packetBytes)"
scalar IEEE80211_AdHoc_Vadere.station[0].wlan[0].mac packetDrop:count 44
attr interpolationmode none
attr source packetDropped
attr title "packet drops, count"
scalar IEEE80211_AdHoc_Vadere.station[0].wlan[0].mac packetDrop:sum(packetBytes) 42776
attr interpolationmode none
attr source packetDropped
attr title "packet drops, sum(packetBytes)"
scalar IEEE80211_AdHoc_Vadere.station[0].wlan[0].mac packetDropIncorrectlyReceived:count 44
attr interpolationmode none
attr source packetDropReasonIsIncorrectlyReceived(packetDropped)
attr title "packet drops: incorrectly received, count"
scalar IEEE80211_AdHoc_Vadere.station[0].wlan[0].mac packetDropIncorrectlyReceived:sum(packetBytes) 42776
attr interpolationmode none
attr source packetDropReasonIsIncorrectlyReceived(packetDropped)
attr title "packet drops: incorrectly received, sum(packetBytes)"
scalar IEEE80211_AdHoc_Vadere.station[0].wlan[0].mac packetDropNotAddressedToUs:count 0
attr interpolationmode none
attr source packetDropReasonIsNotAddressedToUs(packetDropped)
attr title "packet drops: not addressed to us, count"
scalar IEEE80211_AdHoc_Vadere.station[0].wlan[0].mac packetDropNotAddressedToUs:sum(packetBytes) 0
attr interpolationmode none
attr source packetDropReasonIsNotAddressedToUs(packetDropped)
attr title "packet drops: not addressed to us, sum(packetBytes)"
scalar IEEE80211_AdHoc_Vadere.station[0].wlan[0].mac packetDropQueueOverflow:count 0
attr interpolationmode none
attr source packetDropReasonIsQueueOverflow(packetDropped)
attr title "packet drops: queue overflow, count"
scalar IEEE80211_AdHoc_Vadere.station[0].wlan[0].mac packetDropQueueOverflow:sum(packetBytes) 0
attr interpolationmode none
attr source packetDropReasonIsQueueOverflow(packetDropped)
attr title "packet drops: queue overflow, sum(packetBytes)"
scalar IEEE80211_AdHoc_Vadere.station[0].wlan[0].mac packetDropRetryLimitReached:count 0
attr interpolationmode none
attr source packetDropReasonIsRetryLimitReached(packetDropped)
attr title "packet drops: retry limit reached, count"
scalar IEEE80211_AdHoc_Vadere.station[0].wlan[0].mac packetDropRetryLimitReached:sum(packetBytes) 0
attr interpolationmode none
attr source packetDropReasonIsRetryLimitReached(packetDropped)
attr title "packet drops: retry limit reached, sum(packetBytes)"
scalar IEEE80211_AdHoc_Vadere.station[0].wlan[0].mac packetDropDuplicateDetected:count 0
attr interpolationmode none
attr source packetDropReasonIsDuplicateDetected(packetDropped)
attr title "packet drops: duplicate detected, count"
scalar IEEE80211_AdHoc_Vadere.station[0].wlan[0].mac packetDropDuplicateDetected:sum(packetBytes) 0
attr interpolationmode none
attr source packetDropReasonIsDuplicateDetected(packetDropped)
attr title "packet drops: duplicate detected, sum(packetBytes)"
scalar IEEE80211_AdHoc_Vadere.station[0].wlan[0].mac packetDropOther:count 0
attr interpolationmode none
attr source packetDropReasonIsOther(packetDropped)
attr title "packet drops: other, count"
scalar IEEE80211_AdHoc_Vadere.station[0].wlan[0].mac packetDropOther:sum(packetBytes) 0
attr interpolationmode none
attr source packetDropReasonIsOther(packetDropped)
attr title "packet drops: other, sum(packetBytes)"
scalar IEEE80211_AdHoc_Vadere.station[0].wlan[0].mac linkBroken:count 0
attr interpolationmode none
attr title "link breaks, count"
scalar IEEE80211_AdHoc_Vadere.station[0].wlan[0].radio radioMode:count 15
attr interpolationmode sample-hold
attr source radioModeChanged
attr title "Radio mode, count"
[...]
attr interpolationmode none
attr source ieee80211Unicast(packetReceivedFromPeer)
attr title "packets received: unicast, count"
scalar IEEE80211_AdHoc_Vadere.hostMobile[98].wlan[0].mac.dcf packetReceivedFromPeerUnicast:sum(packetBytes) 0
attr interpolationmode none
attr source ieee80211Unicast(packetReceivedFromPeer)
attr title "packets received: unicast, sum(packetBytes)"
scalar IEEE80211_AdHoc_Vadere.hostMobile[98].wlan[0].mac.dcf packetReceivedFromPeerMulticast:count 83
attr interpolationmode none
attr source ieee80211Multicast(packetReceivedFromPeer)
attr title "packets received: multicast, count"
scalar IEEE80211_AdHoc_Vadere.hostMobile[98].wlan[0].mac.dcf packetReceivedFromPeerMulticast:sum(packetBytes) 79804
attr interpolationmode none
attr source ieee80211Multicast(packetReceivedFromPeer)
attr title "packets received: multicast, sum(packetBytes)"
scalar IEEE80211_AdHoc_Vadere.hostMobile[98].wlan[0].mac.dcf packetReceivedFromPeerBroadcast:count 0
attr interpolationmode none
attr source ieee80211Broadcast(packetReceivedFromPeer)
attr title "packets received: broadcast, count"
scalar IEEE80211_AdHoc_Vadere.hostMobile[98].wlan[0].mac.dcf packetReceivedFromPeerBroadcast:sum(packetBytes) 0
attr interpolationmode none
attr source ieee80211Broadcast(packetReceivedFromPeer)
attr title "packets received: broadcast, sum(packetBytes)"
scalar IEEE80211_AdHoc_Vadere.hostMobile[98].wlan[0].mac.dcf packetReceivedFromPeerWithRetry:count 0
attr interpolationmode none
attr source ieee80211Retry(packetReceivedFromPeer)
attr title "packets received: with retry, count"
scalar IEEE80211_AdHoc_Vadere.hostMobile[98].wlan[0].mac.dcf packetReceivedFromPeerWithRetry:sum(packetBytes) 0
attr interpolationmode none
attr source ieee80211Retry(packetReceivedFromPeer)
attr title "packets received: with retry, sum(packetBytes)"
scalar IEEE80211_AdHoc_Vadere.hostMobile[98].wlan[0].mac.dcf packetReceivedFromPeerWithoutRetry:count 83
attr interpolationmode none
attr source ieee80211NotRetry(packetReceivedFromPeer)
attr title "packets received: without retry, count"
scalar IEEE80211_AdHoc_Vadere.hostMobile[98].wlan[0].mac.dcf packetReceivedFromPeerWithoutRetry:sum(packetBytes) 79804
attr interpolationmode none
attr source ieee80211NotRetry(packetReceivedFromPeer)
attr title "packets received: without retry, sum(packetBytes)"
scalar IEEE80211_AdHoc_Vadere.hostMobile[98].wlan[0].mac.dcf packetSentToPeer:count 0
attr interpolationmode none
attr title "packets sent, count"
scalar IEEE80211_AdHoc_Vadere.hostMobile[98].wlan[0].mac.dcf packetSentToPeer:sum(packetBytes) 0
attr interpolationmode none
attr title "packets sent, sum(packetBytes)"
scalar IEEE80211_AdHoc_Vadere.hostMobile[98].wlan[0].mac.dcf packetSentToPeerUnicast:count 0
attr interpolationmode none
attr source ieee80211Unicast(packetSentToPeer)
attr title "packets sent: unicast, count"
scalar IEEE80211_AdHoc_Vadere.hostMobile[98].wlan[0].mac.dcf packetSentToPeerUnicast:sum(packetBytes) 0
attr interpolationmode none
attr source ieee80211Unicast(packetSentToPeer)
attr title "packets sent: unicast, sum(packetBytes)"
scalar IEEE80211_AdHoc_Vadere.hostMobile[98].wlan[0].mac.dcf packetSentToPeerMulticast:count 0
attr interpolationmode none
attr source ieee80211Multicast(packetSentToPeer)
attr title "packets sent: multicast, count"
scalar IEEE80211_AdHoc_Vadere.hostMobile[98].wlan[0].mac.dcf packetSentToPeerMulticast:sum(packetBytes) 0
attr interpolationmode none
attr source ieee80211Multicast(packetSentToPeer)
attr title "packets sent: multicast, sum(packetBytes)"
scalar IEEE80211_AdHoc_Vadere.hostMobile[98].wlan[0].mac.dcf packetSentToPeerBroadcast:count 0
attr interpolationmode none
attr source ieee80211Broadcast(packetSentToPeer)
attr title "packets sent: broadcast , count"
scalar IEEE80211_AdHoc_Vadere.hostMobile[98].wlan[0].mac.dcf packetSentToPeerBroadcast:sum(packetBytes) 0
attr interpolationmode none
attr source ieee80211Broadcast(packetSentToPeer)
attr title "packets sent: broadcast , sum(packetBytes)"
scalar IEEE80211_AdHoc_Vadere.hostMobile[98].wlan[0].mac.dcf packetSentToPeerWithRetry:count 0
attr interpolationmode none
attr source ieee80211Retry(packetSentToPeer)
attr title "packets sent: with retry, count"
scalar IEEE80211_AdHoc_Vadere.hostMobile[98].wlan[0].mac.dcf packetSentToPeerWithRetry:sum(packetBytes) 0
attr interpolationmode none
attr source ieee80211Retry(packetSentToPeer)
attr title "packets sent: with retry, sum(packetBytes)"
scalar IEEE80211_AdHoc_Vadere.hostMobile[98].wlan[0].mac.dcf packetSentToPeerWithoutRetry:count 0
attr interpolationmode none
attr source ieee80211NotRetry(packetSentToPeer)
attr title "packets sent: without retry, count"
scalar IEEE80211_AdHoc_Vadere.hostMobile[98].wlan[0].mac.dcf packetSentToPeerWithoutRetry:sum(packetBytes) 0
attr interpolationmode none
attr source ieee80211NotRetry(packetSentToPeer)
attr title "packets sent: without retry, sum(packetBytes)"
scalar IEEE80211_AdHoc_Vadere.hostMobile[98].wlan[0].mac.dcf packetDrop:count 0
attr interpolationmode none
attr source packetDropped
attr title "packet drops, count"
scalar IEEE80211_AdHoc_Vadere.hostMobile[98].wlan[0].mac.dcf packetDrop:sum(packetBytes) 0
attr interpolationmode none
attr source packetDropped
attr title "packet drops, sum(packetBytes)"
scalar IEEE80211_AdHoc_Vadere.hostMobile[98].wlan[0].mac.dcf packetDropNotAddressedToUs:count 0
attr interpolationmode none
attr source packetDropReasonIsNotAddressedToUs(packetDropped)
attr title "packet drops: not addressed to us, count"
scalar IEEE80211_AdHoc_Vadere.hostMobile[98].wlan[0].mac.dcf packetDropNotAddressedToUs:sum(packetBytes) 0
attr interpolationmode none
attr source packetDropReasonIsNotAddressedToUs(packetDropped)
attr title "packet drops: not addressed to us, sum(packetBytes)"
scalar IEEE80211_AdHoc_Vadere.hostMobile[98].wlan[0].mac.dcf packetDropQueueOverflow:count 0
attr interpolationmode none
attr source packetDropReasonIsQueueOverflow(packetDropped)
attr title "packet drops: queue overflow, count"
scalar IEEE80211_AdHoc_Vadere.hostMobile[98].wlan[0].mac.dcf packetDropQueueOverflow:sum(packetBytes) 0
attr interpolationmode none
attr source packetDropReasonIsQueueOverflow(packetDropped)
attr title "packet drops: queue overflow, sum(packetBytes)"
scalar IEEE80211_AdHoc_Vadere.hostMobile[98].wlan[0].mac.dcf packetDropRetryLimitReached:count 0
attr interpolationmode none
attr source packetDropReasonIsRetryLimitReached(packetDropped)
attr title "packet drops: retry limit reached, count"
scalar IEEE80211_AdHoc_Vadere.hostMobile[98].wlan[0].mac.dcf packetDropRetryLimitReached:sum(packetBytes) 0
attr interpolationmode none
attr source packetDropReasonIsRetryLimitReached(packetDropped)
attr title "packet drops: retry limit reached, sum(packetBytes)"
scalar IEEE80211_AdHoc_Vadere.hostMobile[98].wlan[0].mac.dcf linkBroken:count 0
attr interpolationmode none
attr title "link breaks, count"
scalar IEEE80211_AdHoc_Vadere.hostMobile[98].wlan[0].mac packetReceivedFromLower:count 128
attr interpolationmode none
attr title "packets received from lower layer, count"
scalar IEEE80211_AdHoc_Vadere.hostMobile[98].wlan[0].mac packetReceivedFromLower:sum(packetBytes) 125512
attr interpolationmode none
attr title "packets received from lower layer, sum(packetBytes)"
scalar IEEE80211_AdHoc_Vadere.hostMobile[98].wlan[0].mac packetSentToLower:count 0
attr interpolationmode none
attr title "packets sent to lower layer, count"
scalar IEEE80211_AdHoc_Vadere.hostMobile[98].wlan[0].mac packetSentToLower:sum(packetBytes) 0
attr interpolationmode none
attr title "packets sent to lower layer, sum(packetBytes)"
scalar IEEE80211_AdHoc_Vadere.hostMobile[98].wlan[0].mac packetReceivedFromUpper:count 0
attr interpolationmode none
attr title "packets received from upper layer, count"
scalar IEEE80211_AdHoc_Vadere.hostMobile[98].wlan[0].mac packetReceivedFromUpper:sum(packetBytes) 0
attr interpolationmode none
attr title "packets received from upper layer, sum(packetBytes)"
scalar IEEE80211_AdHoc_Vadere.hostMobile[98].wlan[0].mac packetSentToUpper:count 42
attr interpolationmode none
attr title "packets sent to upper layer, count"
scalar IEEE80211_AdHoc_Vadere.hostMobile[98].wlan[0].mac packetSentToUpper:sum(packetBytes) 44168
attr interpolationmode none
attr title "packets sent to upper layer, sum(packetBytes)"
scalar IEEE80211_AdHoc_Vadere.hostMobile[98].wlan[0].mac packetDrop:count 45
attr interpolationmode none
attr source packetDropped
attr title "packet drops, count"
scalar IEEE80211_AdHoc_Vadere.hostMobile[98].wlan[0].mac packetDrop:sum(packetBytes) 45708
attr interpolationmode none
attr source packetDropped
attr title "packet drops, sum(packetBytes)"
scalar IEEE80211_AdHoc_Vadere.hostMobile[98].wlan[0].mac packetDropIncorrectlyReceived:count 45
attr interpolationmode none
attr source packetDropReasonIsIncorrectlyReceived(packetDropped)
attr title "packet drops: incorrectly received, count"
scalar IEEE80211_AdHoc_Vadere.hostMobile[98].wlan[0].mac packetDropIncorrectlyReceived:sum(packetBytes) 45708
attr interpolationmode none
attr source packetDropReasonIsIncorrectlyReceived(packetDropped)
attr title "packet drops: incorrectly received, sum(packetBytes)"
scalar IEEE80211_AdHoc_Vadere.hostMobile[98].wlan[0].mac packetDropNotAddressedToUs:count 0
attr interpolationmode none
attr source packetDropReasonIsNotAddressedToUs(packetDropped)
attr title "packet drops: not addressed to us, count"
scalar IEEE80211_AdHoc_Vadere.hostMobile[98].wlan[0].mac packetDropNotAddressedToUs:sum(packetBytes) 0
attr interpolationmode none
attr source packetDropReasonIsNotAddressedToUs(packetDropped)
attr title "packet drops: not addressed to us, sum(packetBytes)"
scalar IEEE80211_AdHoc_Vadere.hostMobile[98].wlan[0].mac packetDropQueueOverflow:count 0
attr interpolationmode none
attr source packetDropReasonIsQueueOverflow(packetDropped)
attr title "packet drops: queue overflow, count"
scalar IEEE80211_AdHoc_Vadere.hostMobile[98].wlan[0].mac packetDropQueueOverflow:sum(packetBytes) 0
attr interpolationmode none
attr source packetDropReasonIsQueueOverflow(packetDropped)
attr title "packet drops: queue overflow, sum(packetBytes)"
scalar IEEE80211_AdHoc_Vadere.hostMobile[98].wlan[0].mac packetDropRetryLimitReached:count 0
attr interpolationmode none
attr source packetDropReasonIsRetryLimitReached(packetDropped)
attr title "packet drops: retry limit reached, count"
scalar IEEE80211_AdHoc_Vadere.hostMobile[98].wlan[0].mac packetDropRetryLimitReached:sum(packetBytes) 0
attr interpolationmode none
attr source packetDropReasonIsRetryLimitReached(packetDropped)
attr title "packet drops: retry limit reached, sum(packetBytes)"
scalar IEEE80211_AdHoc_Vadere.hostMobile[98].wlan[0].mac packetDropDuplicateDetected:count 0
attr interpolationmode none
attr source packetDropReasonIsDuplicateDetected(packetDropped)
attr title "packet drops: duplicate detected, count"
scalar IEEE80211_AdHoc_Vadere.hostMobile[98].wlan[0].mac packetDropDuplicateDetected:sum(packetBytes) 0
attr interpolationmode none
attr source packetDropReasonIsDuplicateDetected(packetDropped)
attr title "packet drops: duplicate detected, sum(packetBytes)"
scalar IEEE80211_AdHoc_Vadere.hostMobile[98].wlan[0].mac packetDropOther:count 0
attr interpolationmode none
attr source packetDropReasonIsOther(packetDropped)
attr title "packet drops: other, count"
scalar IEEE80211_AdHoc_Vadere.hostMobile[98].wlan[0].mac packetDropOther:sum(packetBytes) 0
attr interpolationmode none
attr source packetDropReasonIsOther(packetDropped)
attr title "packet drops: other, sum(packetBytes)"
scalar IEEE80211_AdHoc_Vadere.hostMobile[98].wlan[0].mac linkBroken:count 0
attr interpolationmode none
attr title "link breaks, count"
scalar IEEE80211_AdHoc_Vadere.hostMobile[98].wlan[0].radio radioMode:count 3
attr interpolationmode sample-hold
attr source radioModeChanged
attr title "Radio mode, count"
scalar IEEE80211_AdHoc_Vadere.hostMobile[98].wlan[0].radio receptionState:count 315
attr interpolationmode sample-hold
attr source receptionStateChanged
attr title "Radio reception state, count"
scalar IEEE80211_AdHoc_Vadere.hostMobile[98].wlan[0].radio transmissionState:count 0
attr interpolationmode sample-hold
attr source transmissionStateChanged
attr title "Radio transmission state, count"
scalar IEEE80211_AdHoc_Vadere.hostMobile[98].ipv4.ip packetDropAddressResolutionFailed:count 0
attr interpolationmode none
attr source packetDropReasonIsAddressResolutionFailed(packetDropped)
attr title "packet drop: address resolution failed, count"
scalar IEEE80211_AdHoc_Vadere.hostMobile[98].ipv4.ip packetDropAddressResolutionFailed:sum(packetBytes) 0
attr interpolationmode none
attr source packetDropReasonIsAddressResolutionFailed(packetDropped)
attr title "packet drop: address resolution failed, sum(packetBytes)"
scalar IEEE80211_AdHoc_Vadere.hostMobile[98].ipv4.ip packetDropHopLimitReached:count 0
attr interpolationmode none
attr source packetDropReasonIsHopLimitReached(packetDropped)
attr title "packet drop: hop limit reached, count"
scalar IEEE80211_AdHoc_Vadere.hostMobile[98].ipv4.ip packetDropHopLimitReached:sum(packetBytes) 0
attr interpolationmode none
attr source packetDropReasonIsHopLimitReached(packetDropped)
attr title "packet drop: hop limit reached, sum(packetBytes)"
scalar IEEE80211_AdHoc_Vadere.hostMobile[98].ipv4.ip packetDropForwardingDisabled:count 0
attr interpolationmode none
attr source packetDropReasonIsForwardingDisabled(packetDropped)
attr title "packet drop: forwarding disabled, count"
scalar IEEE80211_AdHoc_Vadere.hostMobile[98].ipv4.ip packetDropForwardingDisabled:sum(packetBytes) 0
attr interpolationmode none
attr source packetDropReasonIsForwardingDisabled(packetDropped)
attr title "packet drop: forwarding disabled, sum(packetBytes)"
scalar IEEE80211_AdHoc_Vadere.hostMobile[98].ipv4.ip packetDropNoInterfaceFound:count 0
attr interpolationmode none
attr source packetDropReasonIsNoInterfaceFound(packetDropped)
attr title "packet drop: no interface found, count"
scalar IEEE80211_AdHoc_Vadere.hostMobile[98].ipv4.ip packetDropNoInterfaceFound:sum(packetBytes) 0
attr interpolationmode none
attr source packetDropReasonIsNoInterfaceFound(packetDropped)
attr title "packet drop: no interface found, sum(packetBytes)"
scalar IEEE80211_AdHoc_Vadere.hostMobile[98].ipv4.ip packetDropNoRouteFound:count 0
attr interpolationmode none
attr source packetDropReasonIsNoRouteFound(packetDropped)
attr title "packet drop: no route found, count"
scalar IEEE80211_AdHoc_Vadere.hostMobile[98].ipv4.ip packetDropNoRouteFound:sum(packetBytes) 0
attr interpolationmode none
attr source packetDropReasonIsNoRouteFound(packetDropped)
attr title "packet drop: no route found, sum(packetBytes)"
scalar IEEE80211_AdHoc_Vadere.hostMobile[98].ipv4.ip packetDropUndefined:count 0
attr interpolationmode none
attr source packetDropReasonIsUndefined(packetDropped)
attr title "packet drop: undefined, count"
scalar IEEE80211_AdHoc_Vadere.hostMobile[98].ipv4.ip packetDropUndefined:sum(packetBytes) 0
attr interpolationmode none
attr source packetDropReasonIsUndefined(packetDropped)
attr title "packet drop: undefined, sum(packetBytes)"
scalar IEEE80211_AdHoc_Vadere.hostMobile[98].ipv4.arp arpResolutionFailed:count 0
attr title "ARP failed resolutions, count"
scalar IEEE80211_AdHoc_Vadere.hostMobile[98].ipv4.arp arpResolutionCompleted:count 0
attr title "ARP completed resolutions, count"
scalar IEEE80211_AdHoc_Vadere.hostMobile[98].ipv4.arp arpResolutionInitiated:count 0
attr title "ARP initiated resolutions, count"
scalar IEEE80211_AdHoc_Vadere.hostMobile[98].ipv4.arp arpReplySent:count 0
attr source arpReplySent
attr title "ARP replies sent, count"
scalar IEEE80211_AdHoc_Vadere.hostMobile[98].ipv4.arp arpReplySent:sum(packetBytes) 0
attr source arpReplySent
attr title "ARP replies sent, sum(packetBytes)"
scalar IEEE80211_AdHoc_Vadere.hostMobile[98].ipv4.arp arpRequestSent:count 0
attr source arpRequestSent
attr title "ARP request sent, count"
scalar IEEE80211_AdHoc_Vadere.hostMobile[98].ipv4.arp arpRequestSent:sum(packetBytes) 0
attr source arpRequestSent
attr title "ARP request sent, sum(packetBytes)"
scalar IEEE80211_AdHoc_Vadere.hostMobile[98].udp packetReceived:count 4
attr interpolationmode none
attr source packetReceived
attr title "packets received, count"
scalar IEEE80211_AdHoc_Vadere.hostMobile[98].udp packetReceived:sum(packetBytes) 12032
attr interpolationmode none
attr source packetReceived
attr title "packets received, sum(packetBytes)"
scalar IEEE80211_AdHoc_Vadere.hostMobile[98].udp packetSent:count 0
attr interpolationmode none
attr source packetSent
attr title "packets sent, count"
scalar IEEE80211_AdHoc_Vadere.hostMobile[98].udp packetSent:sum(packetBytes) 0
attr interpolationmode none
attr source packetSent
attr title "packets sent, sum(packetBytes)"
scalar IEEE80211_AdHoc_Vadere.hostMobile[98].udp passedUpPk:count 4
attr interpolationmode none
attr source packetSentToUpper
attr title "packets passed up, count"
scalar IEEE80211_AdHoc_Vadere.hostMobile[98].udp droppedPkWrongPort:count 0
attr interpolationmode none
attr source packetDropReasonIsNoPortFound(packetDropped)
attr title "packets dropped (wrong port), count"
scalar IEEE80211_AdHoc_Vadere.hostMobile[98].udp droppedPkBadChecksum:count 0
attr interpolationmode none
attr source packetDropReasonIsIncorrectlyReceived(packetDropped)
attr title "packets dropped (checksum error), count"
statistic IEEE80211_AdHoc_Vadere.hostMobile[98].app[0] incidentAge:stats
field count 4
field mean 1.0357054795125
field stddev 0.0081026844683259
field min 1.023791508765
field max 1.041605394212
field sum 4.14282191805
field sqrsum 4.2909403216557
attr interpolationmode none
attr source incidentAge(packetReceived)
attr title "incidentAge, stats"
attr unit s
statistic IEEE80211_AdHoc_Vadere.hostMobile[98].app[0] lastHopAge:stats
field count 4
field mean 0.03410707821425
field stddev 0.0081026870185382
field min 0.022193101988
field max 0.040006967239
field sum 0.136428312857
field sqrsum 0.004850131748013
attr interpolationmode none
attr source lastHopAge(packetReceived)
attr title "lastHopAge, stats"
attr unit s
scalar IEEE80211_AdHoc_Vadere.hostMobile[98].app[0] packetReceived:count 4
attr interpolationmode none
attr source packetReceived
attr title "packets received, count"
scalar IEEE80211_AdHoc_Vadere.hostMobile[98].app[0] packetReceived:sum(packetBytes) 12000
attr interpolationmode none
attr source packetReceived
attr title "packets received, sum(packetBytes)"
scalar IEEE80211_AdHoc_Vadere.hostMobile[98].app[0] packetSent:count 0
attr interpolationmode none
attr source packetSent
attr title "packets sent, count"
scalar IEEE80211_AdHoc_Vadere.hostMobile[98].app[0] packetSent:sum(packetBytes) 0
attr interpolationmode none
attr source packetSent
attr title "packets sent, sum(packetBytes)"
scalar IEEE80211_AdHoc_Vadere.hostMobile[98].app[1] "packets sent" 0
scalar IEEE80211_AdHoc_Vadere.hostMobile[98].app[1] "packets received" 0
scalar IEEE80211_AdHoc_Vadere.hostMobile[98].app[1] packetReceived:count 0
attr interpolationmode none
attr source packetReceived
attr title "packets received, count"
scalar IEEE80211_AdHoc_Vadere.hostMobile[98].app[1] packetReceived:sum(packetBytes) 0
attr interpolationmode none
attr source packetReceived
attr title "packets received, sum(packetBytes)"
statistic IEEE80211_AdHoc_Vadere.hostMobile[98].app[1] rcvdPkLifetime:stats
field count 0
field mean -nan
field stddev nan
field min nan
field max nan
field sum 0
field sqrsum 0
attr interpolationmode none
attr source dataAge(packetReceived)
attr title "received packet lifetime, stats"
attr unit s
scalar IEEE80211_AdHoc_Vadere.hostMobile[98].app[1] packetSent:count 0
attr interpolationmode none
attr source packetSent
attr title "packets sent, count"
scalar IEEE80211_AdHoc_Vadere.hostMobile[98].app[1] packetSent:sum(packetBytes) 0
attr interpolationmode none
attr source packetSent
attr title "packets sent, sum(packetBytes)"

