version 2
run final-0-20201203-18:45:42-9
attr configname final
attr datetime 20201203-18:45:42
attr experiment out
attr inifile omnetpp.ini
attr iterationvars ""
attr iterationvarsf ""
attr measurement ""
attr network rover.simulations.networks.IEEE80211_AdHoc_Vadere
attr processid 9
attr repetition 0
attr replication #0
attr resultdir results
attr runnumber 0
attr seedset 42
param *.manager.vadereScenarioPath "\"vadere/scenarios/simple_detour_100x177_miat1.25.scenario\""
param *.manager.seed 42
param *.manager.useVadereSeed true
param *.station[0].numApps 1
param *.station[0].app[0].typename "\"UdpDetourApp\""
param *.station[0].app[0].incidentTime 100s
param *.station[0].app[0].reason "\"E2002_closed\""
param *.station[0].app[0].closedTarget "\"2002\""
param *.station[0].app[0].alternativeRoute "\"2003,2001\""
param *.station[0].app[0].repeatTime 600s
param *.station[0].app[0].repeateInterval 1s
param *.station[0].app[0].localPort 3000
param *.station[0].app[0].startTime 0s
param *.station[0].app[0].stopTime 300s
param *.station[0].app[0].destAddresses "\"224.0.0.10\""
param *.station[0].app[0].destPort 3000
param *.station[0].app[0].receiveBroadcast true
param *.station[0].app[0].joinLocalMulticastGroups true
param *.station[0].app[0].multicastInterface "\"wlan0\""
param *.station[0].app[0].messageLength 3kB
param *.station[1].numApps 1
param *.station[1].app[0].typename "\"UdpSink\""
param *.station[1].app[0].localPort 5000
param *.hostMobile[*].numApps 2
param *.hostMobile[*].app[0].typename "\"UdpDetourAppVadere\""
param *.hostMobile[*].app[0].localPort 3000
param *.hostMobile[*].app[0].startTime 0s
param *.hostMobile[*].app[0].stopTime 300s
param *.hostMobile[*].app[0].destAddresses "\"224.0.0.10\""
param *.hostMobile[*].app[0].destPort 3000
param *.hostMobile[*].app[0].receiveBroadcast true
param *.hostMobile[*].app[0].joinLocalMulticastGroups true
param *.hostMobile[*].app[0].multicastInterface "\"wlan0\""
param *.hostMobile[*].app[0].notifyMobilityProvider true
param *.hostMobile[*].app[0].messageLength 3kB
param *.hostMobile[*].app[1].typename "\"UdpBasicApp\""
param *.hostMobile[*].app[1].destAddresses "\"station[1]\""
param *.hostMobile[*].app[1].sendInterval "truncnormal(20ms, 1ms)"
param *.hostMobile[*].app[1].destPort 5000
param *.hostMobile[*].app[1].messageLength 3011B
param *.hostMobile[*].app[1].packetName "\"UDPBackground\""
param *.hostMobile[*].app[1].startTime "truncnormal(99.5s, 0.2s)"
param *.hostMobile[*].app[1].stopTime 300s
param *.manager.host "\"vadere_Sample__0_0\""
param *.manager.port 9998
param *.manager.moduleType "\"pedestrian=org.car2x.veins.subprojects.veins_inet.VeinsInetPerson\""
param *.manager.moduleName "\"pedestrian=hostMobile\""
param *.manager.margin 0
param *.manager.moduleDisplayString "\"\""
param *.manager.vadereCachePath "\"vadere-cache/veins-test\""
param *.manager.visualizer "\"visualization\""
param *.numMappings 1
param *.mappingDistribution[0].mapping_root "\"pedestrian\""
param *.mappingDistribution[0].mapping_moduleName "\"p1=hostMobile p2=hUeq\""
param *.mappingDistribution[0].mapping_moduleType "\"p1=org.car2x.veins.subprojects.veins_inet.VeinsInetPerson p2=rover.nodes.UnequippedHost\""
param *.mappingDistribution[0].mapping_distribution "\"p1=1.0 p2=0.0\""
param *.physicalEnvironment.config "xmldoc(\"vadere/scenarios/simple_detour_100x177.env.xml\")"
param *.physicalEnvironment.spaceMinX -10m
param *.physicalEnvironment.spaceMinY -10m
param *.physicalEnvironment.spaceMinZ -10m
param *.physicalEnvironment.spaceMaxX 200m
param *.physicalEnvironment.spaceMaxY 150m
param *.physicalEnvironment.spaceMaxZ 100m
param *.numStationary 2
param *.station[0].mobility.initFromDisplayString false
param *.station[0].mobilityType "\"StationaryMobility\""
param *.station[0].mobility.initialX 30m
param *.station[0].mobility.initialY 93.5m
param *.station[1].mobility.initFromDisplayString false
param *.station[1].mobilityType "\"StationaryMobility\""
param *.station[1].mobility.initialX 85m
param *.station[1].mobility.initialY 45m
param *.hostMobile[*].ipv4.configurator.typename "\"HostAutoConfigurator\""
param *.hostMobile[*].ipv4.configurator.interfaces "\"wlan0\""
param *.hostMobile[*].ipv4.configurator.mcastGroups "\"224.0.0.10\""
param *.hostMobile[*].ipv4.configurator.addressBase "\"20.0.5.0\""
param *.hostMobile[*].ipv4.configurator.netmask "\"255.0.0.0\""
param **wlan[*].radio.transmitter.power 1.16mW
param **wlan[*].radio.receiver.sensitivity -85dBm
param **wlan[*].radio.receiver.snirThreshold 6dB
param *.radioMedium.typename "\"Ieee80211DimensionalRadioMedium\""
param *.radioMedium.pathLoss.typename "\"LogNormalShadowing\""
param *.radioMedium.obstacleLoss.typename "\"IdealObstacleLoss\""
param **wlan[*].radio.typename "\"Ieee80211DimensionalRadio\""
param **.errorModel.snirMode "\"mean\""
param **.receiver.snirThresholdMode "\"mean\""
param **.mobility.constraintAreaMinZ 0m
param **.mobility.constraintAreaMaxZ 0m
param *.manager.updateInterval 0.4s
param *.manager.margin 0
param *.manager.autoShutdown true

scalar IEEE80211_AdHoc_Vadere.station[0].app[0] internalId 27
scalar IEEE80211_AdHoc_Vadere.station[0].app[0] moduleCreationTime 0
attr unit s
scalar IEEE80211_AdHoc_Vadere.hostMobile[0].app[0] internalId 170
scalar IEEE80211_AdHoc_Vadere.hostMobile[0].app[0] moduleCreationTime 0.4
attr unit s
scalar IEEE80211_AdHoc_Vadere.hostMobile[0].app[0] externalId 1
scalar IEEE80211_AdHoc_Vadere.hostMobile[1].app[0] internalId 232
scalar IEEE80211_AdHoc_Vadere.hostMobile[1].app[0] moduleCreationTime 0.4
attr unit s
scalar IEEE80211_AdHoc_Vadere.hostMobile[1].app[0] externalId 2
scalar IEEE80211_AdHoc_Vadere.hostMobile[2].app[0] internalId 294
scalar IEEE80211_AdHoc_Vadere.hostMobile[2].app[0] moduleCreationTime 0.4
attr unit s
scalar IEEE80211_AdHoc_Vadere.hostMobile[2].app[0] externalId 3
scalar IEEE80211_AdHoc_Vadere.hostMobile[3].app[0] internalId 356
scalar IEEE80211_AdHoc_Vadere.hostMobile[3].app[0] moduleCreationTime 0.4
attr unit s
scalar IEEE80211_AdHoc_Vadere.hostMobile[3].app[0] externalId 4
scalar IEEE80211_AdHoc_Vadere.hostMobile[4].app[0] internalId 418
scalar IEEE80211_AdHoc_Vadere.hostMobile[4].app[0] moduleCreationTime 16.4
attr unit s
scalar IEEE80211_AdHoc_Vadere.hostMobile[4].app[0] externalId 5
scalar IEEE80211_AdHoc_Vadere.hostMobile[5].app[0] internalId 480
scalar IEEE80211_AdHoc_Vadere.hostMobile[5].app[0] moduleCreationTime 26
attr unit s
scalar IEEE80211_AdHoc_Vadere.hostMobile[5].app[0] externalId 6
scalar IEEE80211_AdHoc_Vadere.hostMobile[6].app[0] internalId 542
scalar IEEE80211_AdHoc_Vadere.hostMobile[6].app[0] moduleCreationTime 26.8
attr unit s
scalar IEEE80211_AdHoc_Vadere.hostMobile[6].app[0] externalId 7
scalar IEEE80211_AdHoc_Vadere.hostMobile[7].app[0] internalId 604
scalar IEEE80211_AdHoc_Vadere.hostMobile[7].app[0] moduleCreationTime 40.4
attr unit s
scalar IEEE80211_AdHoc_Vadere.hostMobile[7].app[0] externalId 8
scalar IEEE80211_AdHoc_Vadere.hostMobile[8].app[0] internalId 666
scalar IEEE80211_AdHoc_Vadere.hostMobile[8].app[0] moduleCreationTime 42.4
attr unit s
scalar IEEE80211_AdHoc_Vadere.hostMobile[8].app[0] externalId 9
scalar IEEE80211_AdHoc_Vadere.hostMobile[9].app[0] internalId 728
scalar IEEE80211_AdHoc_Vadere.hostMobile[9].app[0] moduleCreationTime 74.4
attr unit s
scalar IEEE80211_AdHoc_Vadere.hostMobile[9].app[0] externalId 10
scalar IEEE80211_AdHoc_Vadere.hostMobile[10].app[0] internalId 790
scalar IEEE80211_AdHoc_Vadere.hostMobile[10].app[0] moduleCreationTime 76.4
attr unit s
scalar IEEE80211_AdHoc_Vadere.hostMobile[10].app[0] externalId 11
scalar IEEE80211_AdHoc_Vadere.hostMobile[3].mobility externalId:last 4
attr source veins_inet_mobility_base_mobility_pre_init
scalar IEEE80211_AdHoc_Vadere.hostMobile[3].lo[0].lo rcvdPkFromHl:count 0
attr interpolationmode none
attr source packetReceivedFromUpper
attr title "packets received from higher layer, count"
scalar IEEE80211_AdHoc_Vadere.hostMobile[3].lo[0].lo rcvdPkFromHl:sum(packetBytes) 0
attr interpolationmode none
attr source packetReceivedFromUpper
attr title "packets received from higher layer, sum(packetBytes)"
scalar IEEE80211_AdHoc_Vadere.hostMobile[3].lo[0].lo passedUpPk:count 0
attr interpolationmode none
attr source packetSentToUpper
attr title "packets passed to higher layer, count"
scalar IEEE80211_AdHoc_Vadere.hostMobile[3].lo[0].lo passedUpPk:sum(packetBytes) 0
attr interpolationmode none
attr source packetSentToUpper
attr title "packets passed to higher layer, sum(packetBytes)"
scalar IEEE80211_AdHoc_Vadere.hostMobile[3].wlan[0].mac.dcf.channelAccess.pendingQueue packetPopped:count 0
attr interpolationmode none
attr title "packet popped, count"
scalar IEEE80211_AdHoc_Vadere.hostMobile[3].wlan[0].mac.dcf.channelAccess.pendingQueue packetPopped:sum(packetBytes) 0
attr interpolationmode none
attr title "packet popped, sum(packetBytes)"
scalar IEEE80211_AdHoc_Vadere.hostMobile[3].wlan[0].mac.dcf.channelAccess.pendingQueue queueLength:max nan
attr interpolationmode sample-hold
attr source "count(packetPushed) - count(packetPopped) - count(packetRemoved) - count(packetDropped)"
attr title "queue length, max"
scalar IEEE80211_AdHoc_Vadere.hostMobile[3].wlan[0].mac.dcf.channelAccess.pendingQueue queueLength:timeavg -nan
attr interpolationmode sample-hold
attr source "count(packetPushed) - count(packetPopped) - count(packetRemoved) - count(packetDropped)"
attr title "queue length, timeavg"
scalar IEEE80211_AdHoc_Vadere.hostMobile[3].wlan[0].mac.dcf.channelAccess.pendingQueue packetPushed:count 0
attr interpolationmode none
attr title "packet pushed, count"
scalar IEEE80211_AdHoc_Vadere.hostMobile[3].wlan[0].mac.dcf.channelAccess.pendingQueue packetPushed:sum(packetBytes) 0
attr interpolationmode none
attr title "packet pushed, sum(packetBytes)"
scalar IEEE80211_AdHoc_Vadere.hostMobile[3].wlan[0].mac.dcf.channelAccess.pendingQueue packetDropQueueOverflow:count 0
attr interpolationmode none
attr source packetDropReasonIsQueueOverflow(packetDropped)
attr title "packet drops: queue overflow, count"
scalar IEEE80211_AdHoc_Vadere.hostMobile[3].wlan[0].mac.dcf.channelAccess.pendingQueue packetDropQueueOverflow:sum(packetBytes) 0
attr interpolationmode none
attr source packetDropReasonIsQueueOverflow(packetDropped)
attr title "packet drops: queue overflow, sum(packetBytes)"
scalar IEEE80211_AdHoc_Vadere.hostMobile[3].wlan[0].mac.dcf.channelAccess.pendingQueue packetRemoved:count 0
attr interpolationmode none
attr title "packets removed, count"
scalar IEEE80211_AdHoc_Vadere.hostMobile[3].wlan[0].mac.dcf.channelAccess.pendingQueue packetRemoved:sum(packetBytes) 0
attr interpolationmode none
attr title "packets removed, sum(packetBytes)"
scalar IEEE80211_AdHoc_Vadere.hostMobile[3].wlan[0].mac.dcf.channelAccess.inProgressFrames queueLength:max nan
attr interpolationmode sample-hold
attr source "count(packetEnqueued) - count(packetDequeued)"
attr title "queue length, max"
scalar IEEE80211_AdHoc_Vadere.hostMobile[3].wlan[0].mac.dcf.channelAccess.inProgressFrames queueLength:timeavg -nan
attr interpolationmode sample-hold
attr source "count(packetEnqueued) - count(packetDequeued)"
attr title "queue length, timeavg"
scalar IEEE80211_AdHoc_Vadere.hostMobile[3].wlan[0].mac.dcf.channelAccess.contention channelAccessGranted:count 0
attr title "channel access granted, count"
scalar IEEE80211_AdHoc_Vadere.hostMobile[3].wlan[0].mac.dcf.channelAccess.contention stateChanged:count 2
attr interpolationmode none
attr title "contention state changed, count"
scalar IEEE80211_AdHoc_Vadere.hostMobile[3].wlan[0].mac.dcf.channelAccess channelOwnershipChanged:count 0
attr interpolationmode sample-hold
attr title "channel ownership, count"
scalar IEEE80211_AdHoc_Vadere.hostMobile[3].wlan[0].mac.dcf.originatorMacDataService packetAggregated:count 0
attr title "packets aggregated, count"
scalar IEEE80211_AdHoc_Vadere.hostMobile[3].wlan[0].mac.dcf.originatorMacDataService packetFragmented:count 0
attr title "packets fragmented, count"
scalar IEEE80211_AdHoc_Vadere.hostMobile[3].wlan[0].mac.dcf.recipientMacDataService packetDeaggregated:count 0
attr title "packets deaggregated, count"
scalar IEEE80211_AdHoc_Vadere.hostMobile[3].wlan[0].mac.dcf.recipientMacDataService packetDefragmented:count 0
attr title "packets defragmented, count"
scalar IEEE80211_AdHoc_Vadere.hostMobile[3].wlan[0].mac.dcf.recipientMacDataService packetDropDuplicateDetected:count 0
attr interpolationmode none
attr source packetDropReasonIsDuplicateDetected(packetDropped)
attr title "packet drops: duplicate detected, count"
scalar IEEE80211_AdHoc_Vadere.hostMobile[3].wlan[0].mac.dcf.recipientMacDataService packetDropDuplicateDetected:sum(packetBytes) 0
attr interpolationmode none
attr source packetDropReasonIsDuplicateDetected(packetDropped)
attr title "packet drops: duplicate detected, sum(packetBytes)"
scalar IEEE80211_AdHoc_Vadere.hostMobile[3].wlan[0].mac.dcf.recoveryProcedure retryLimitReached:count 0
attr title "retry limit reached, count"
scalar IEEE80211_AdHoc_Vadere.hostMobile[3].wlan[0].mac.dcf frameSequenceFinished:count 0
attr title "finished frame sequences, count"
scalar IEEE80211_AdHoc_Vadere.hostMobile[3].wlan[0].mac.dcf packetReceivedFromPeer:count 0
attr interpolationmode none
attr title "packets received, count"
scalar IEEE80211_AdHoc_Vadere.hostMobile[3].wlan[0].mac.dcf packetReceivedFromPeer:sum(packetBytes) 0
attr interpolationmode none
attr title "packets received, sum(packetBytes)"
scalar IEEE80211_AdHoc_Vadere.hostMobile[3].wlan[0].mac.dcf packetReceivedFromPeerUnicast:count 0
attr interpolationmode none
attr source ieee80211Unicast(packetReceivedFromPeer)
attr title "packets received: unicast, count"
scalar IEEE80211_AdHoc_Vadere.hostMobile[3].wlan[0].mac.dcf packetReceivedFromPeerUnicast:sum(packetBytes) 0
attr interpolationmode none
attr source ieee80211Unicast(packetReceivedFromPeer)
attr title "packets received: unicast, sum(packetBytes)"
scalar IEEE80211_AdHoc_Vadere.hostMobile[3].wlan[0].mac.dcf packetReceivedFromPeerMulticast:count 0
attr interpolationmode none
attr source ieee80211Multicast(packetReceivedFromPeer)
attr title "packets received: multicast, count"
scalar IEEE80211_AdHoc_Vadere.hostMobile[3].wlan[0].mac.dcf packetReceivedFromPeerMulticast:sum(packetBytes) 0
attr interpolationmode none
attr source ieee80211Multicast(packetReceivedFromPeer)
attr title "packets received: multicast, sum(packetBytes)"
scalar IEEE80211_AdHoc_Vadere.hostMobile[3].wlan[0].mac.dcf packetReceivedFromPeerBroadcast:count 0
attr interpolationmode none
attr source ieee80211Broadcast(packetReceivedFromPeer)
attr title "packets received: broadcast, count"
scalar IEEE80211_AdHoc_Vadere.hostMobile[3].wlan[0].mac.dcf packetReceivedFromPeerBroadcast:sum(packetBytes) 0
attr interpolationmode none
attr source ieee80211Broadcast(packetReceivedFromPeer)
attr title "packets received: broadcast, sum(packetBytes)"
scalar IEEE80211_AdHoc_Vadere.hostMobile[3].wlan[0].mac.dcf packetReceivedFromPeerWithRetry:count 0
attr interpolationmode none
attr source ieee80211Retry(packetReceivedFromPeer)
attr title "packets received: with retry, count"
scalar IEEE80211_AdHoc_Vadere.hostMobile[3].wlan[0].mac.dcf packetReceivedFromPeerWithRetry:sum(packetBytes) 0
attr interpolationmode none
attr source ieee80211Retry(packetReceivedFromPeer)
attr title "packets received: with retry, sum(packetBytes)"
scalar IEEE80211_AdHoc_Vadere.hostMobile[3].wlan[0].mac.dcf packetReceivedFromPeerWithoutRetry:count 0
attr interpolationmode none
attr source ieee80211NotRetry(packetReceivedFromPeer)
attr title "packets received: without retry, count"
scalar IEEE80211_AdHoc_Vadere.hostMobile[3].wlan[0].mac.dcf packetReceivedFromPeerWithoutRetry:sum(packetBytes) 0
attr interpolationmode none
attr source ieee80211NotRetry(packetReceivedFromPeer)
attr title "packets received: without retry, sum(packetBytes)"
scalar IEEE80211_AdHoc_Vadere.hostMobile[3].wlan[0].mac.dcf packetSentToPeer:count 0
attr interpolationmode none
attr title "packets sent, count"
scalar IEEE80211_AdHoc_Vadere.hostMobile[3].wlan[0].mac.dcf packetSentToPeer:sum(packetBytes) 0
attr interpolationmode none
attr title "packets sent, sum(packetBytes)"
scalar IEEE80211_AdHoc_Vadere.hostMobile[3].wlan[0].mac.dcf packetSentToPeerUnicast:count 0
attr interpolationmode none
attr source ieee80211Unicast(packetSentToPeer)
attr title "packets sent: unicast, count"
scalar IEEE80211_AdHoc_Vadere.hostMobile[3].wlan[0].mac.dcf packetSentToPeerUnicast:sum(packetBytes) 0
attr interpolationmode none
attr source ieee80211Unicast(packetSentToPeer)
attr title "packets sent: unicast, sum(packetBytes)"
scalar IEEE80211_AdHoc_Vadere.hostMobile[3].wlan[0].mac.dcf packetSentToPeerMulticast:count 0
attr interpolationmode none
attr source ieee80211Multicast(packetSentToPeer)
attr title "packets sent: multicast, count"
scalar IEEE80211_AdHoc_Vadere.hostMobile[3].wlan[0].mac.dcf packetSentToPeerMulticast:sum(packetBytes) 0
attr interpolationmode none
attr source ieee80211Multicast(packetSentToPeer)
attr title "packets sent: multicast, sum(packetBytes)"
scalar IEEE80211_AdHoc_Vadere.hostMobile[3].wlan[0].mac.dcf packetSentToPeerBroadcast:count 0
attr interpolationmode none
attr source ieee80211Broadcast(packetSentToPeer)
attr title "packets sent: broadcast , count"
scalar IEEE80211_AdHoc_Vadere.hostMobile[3].wlan[0].mac.dcf packetSentToPeerBroadcast:sum(packetBytes) 0
attr interpolationmode none
attr source ieee80211Broadcast(packetSentToPeer)
attr title "packets sent: broadcast , sum(packetBytes)"
scalar IEEE80211_AdHoc_Vadere.hostMobile[3].wlan[0].mac.dcf packetSentToPeerWithRetry:count 0
attr interpolationmode none
attr source ieee80211Retry(packetSentToPeer)
attr title "packets sent: with retry, count"
scalar IEEE80211_AdHoc_Vadere.hostMobile[3].wlan[0].mac.dcf packetSentToPeerWithRetry:sum(packetBytes) 0
attr interpolationmode none
attr source ieee80211Retry(packetSentToPeer)
attr title "packets sent: with retry, sum(packetBytes)"
scalar IEEE80211_AdHoc_Vadere.hostMobile[3].wlan[0].mac.dcf packetSentToPeerWithoutRetry:count 0
attr interpolationmode none
attr source ieee80211NotRetry(packetSentToPeer)
attr title "packets sent: without retry, count"
scalar IEEE80211_AdHoc_Vadere.hostMobile[3].wlan[0].mac.dcf packetSentToPeerWithoutRetry:sum(packetBytes) 0
attr interpolationmode none
attr source ieee80211NotRetry(packetSentToPeer)
attr title "packets sent: without retry, sum(packetBytes)"
scalar IEEE80211_AdHoc_Vadere.hostMobile[3].wlan[0].mac.dcf packetDrop:count 0
attr interpolationmode none
attr source packetDropped
attr title "packet drops, count"
scalar IEEE80211_AdHoc_Vadere.hostMobile[3].wlan[0].mac.dcf packetDrop:sum(packetBytes) 0
attr interpolationmode none
attr source packetDropped
attr title "packet drops, sum(packetBytes)"
scalar IEEE80211_AdHoc_Vadere.hostMobile[3].wlan[0].mac.dcf packetDropNotAddressedToUs:count 0
attr interpolationmode none
attr source packetDropReasonIsNotAddressedToUs(packetDropped)
attr title "packet drops: not addressed to us, count"
scalar IEEE80211_AdHoc_Vadere.hostMobile[3].wlan[0].mac.dcf packetDropNotAddressedToUs:sum(packetBytes) 0
attr interpolationmode none
attr source packetDropReasonIsNotAddressedToUs(packetDropped)
attr title "packet drops: not addressed to us, sum(packetBytes)"
scalar IEEE80211_AdHoc_Vadere.hostMobile[3].wlan[0].mac.dcf packetDropQueueOverflow:count 0
attr interpolationmode none
attr source packetDropReasonIsQueueOverflow(packetDropped)
attr title "packet drops: queue overflow, count"
scalar IEEE80211_AdHoc_Vadere.hostMobile[3].wlan[0].mac.dcf packetDropQueueOverflow:sum(packetBytes) 0
attr interpolationmode none
attr source packetDropReasonIsQueueOverflow(packetDropped)
attr title "packet drops: queue overflow, sum(packetBytes)"
scalar IEEE80211_AdHoc_Vadere.hostMobile[3].wlan[0].mac.dcf packetDropRetryLimitReached:count 0
attr interpolationmode none
attr source packetDropReasonIsRetryLimitReached(packetDropped)
attr title "packet drops: retry limit reached, count"
scalar IEEE80211_AdHoc_Vadere.hostMobile[3].wlan[0].mac.dcf packetDropRetryLimitReached:sum(packetBytes) 0
attr interpolationmode none
attr source packetDropReasonIsRetryLimitReached(packetDropped)
attr title "packet drops: retry limit reached, sum(packetBytes)"
scalar IEEE80211_AdHoc_Vadere.hostMobile[3].wlan[0].mac.dcf linkBroken:count 0
attr interpolationmode none
attr title "link breaks, count"
scalar IEEE80211_AdHoc_Vadere.hostMobile[3].wlan[0].mac packetReceivedFromLower:count 0
attr interpolationmode none
attr title "packets received from lower layer, count"
scalar IEEE80211_AdHoc_Vadere.hostMobile[3].wlan[0].mac packetReceivedFromLower:sum(packetBytes) 0
attr interpolationmode none
attr title "packets received from lower layer, sum(packetBytes)"
scalar IEEE80211_AdHoc_Vadere.hostMobile[3].wlan[0].mac packetSentToLower:count 0
attr interpolationmode none
attr title "packets sent to lower layer, count"
scalar IEEE80211_AdHoc_Vadere.hostMobile[3].wlan[0].mac packetSentToLower:sum(packetBytes) 0
attr interpolationmode none
attr title "packets sent to lower layer, sum(packetBytes)"
scalar IEEE80211_AdHoc_Vadere.hostMobile[3].wlan[0].mac packetReceivedFromUpper:count 0
attr interpolationmode none
attr title "packets received from upper layer, count"
scalar IEEE80211_AdHoc_Vadere.hostMobile[3].wlan[0].mac packetReceivedFromUpper:sum(packetBytes) 0
attr interpolationmode none
attr title "packets received from upper layer, sum(packetBytes)"
scalar IEEE80211_AdHoc_Vadere.hostMobile[3].wlan[0].mac packetSentToUpper:count 0
attr interpolationmode none
attr title "packets sent to upper layer, count"
scalar IEEE80211_AdHoc_Vadere.hostMobile[3].wlan[0].mac packetSentToUpper:sum(packetBytes) 0
attr interpolationmode none
attr title "packets sent to upper layer, sum(packetBytes)"
scalar IEEE80211_AdHoc_Vadere.hostMobile[3].wlan[0].mac packetDrop:count 0
attr interpolationmode none
attr source packetDropped
attr title "packet drops, count"
scalar IEEE80211_AdHoc_Vadere.hostMobile[3].wlan[0].mac packetDrop:sum(packetBytes) 0
attr interpolationmode none
attr source packetDropped
attr title "packet drops, sum(packetBytes)"
scalar IEEE80211_AdHoc_Vadere.hostMobile[3].wlan[0].mac packetDropIncorrectlyReceived:count 0
attr interpolationmode none
attr source packetDropReasonIsIncorrectlyReceived(packetDropped)
attr title "packet drops: incorrectly received, count"
scalar IEEE80211_AdHoc_Vadere.hostMobile[3].wlan[0].mac packetDropIncorrectlyReceived:sum(packetBytes) 0
attr interpolationmode none
attr source packetDropReasonIsIncorrectlyReceived(packetDropped)
attr title "packet drops: incorrectly received, sum(packetBytes)"
scalar IEEE80211_AdHoc_Vadere.hostMobile[3].wlan[0].mac packetDropNotAddressedToUs:count 0
attr interpolationmode none
attr source packetDropReasonIsNotAddressedToUs(packetDropped)
attr title "packet drops: not addressed to us, count"
scalar IEEE80211_AdHoc_Vadere.hostMobile[3].wlan[0].mac packetDropNotAddressedToUs:sum(packetBytes) 0
attr interpolationmode none
attr source packetDropReasonIsNotAddressedToUs(packetDropped)
attr title "packet drops: not addressed to us, sum(packetBytes)"
scalar IEEE80211_AdHoc_Vadere.hostMobile[3].wlan[0].mac packetDropQueueOverflow:count 0
attr interpolationmode none
attr source packetDropReasonIsQueueOverflow(packetDropped)
attr title "packet drops: queue overflow, count"
scalar IEEE80211_AdHoc_Vadere.hostMobile[3].wlan[0].mac packetDropQueueOverflow:sum(packetBytes) 0
attr interpolationmode none
attr source packetDropReasonIsQueueOverflow(packetDropped)
attr title "packet drops: queue overflow, sum(packetBytes)"
scalar IEEE80211_AdHoc_Vadere.hostMobile[3].wlan[0].mac packetDropRetryLimitReached:count 0
attr interpolationmode none
attr source packetDropReasonIsRetryLimitReached(packetDropped)
attr title "packet drops: retry limit reached, count"
scalar IEEE80211_AdHoc_Vadere.hostMobile[3].wlan[0].mac packetDropRetryLimitReached:sum(packetBytes) 0
attr interpolationmode none
attr source packetDropReasonIsRetryLimitReached(packetDropped)
attr title "packet drops: retry limit reached, sum(packetBytes)"
scalar IEEE80211_AdHoc_Vadere.hostMobile[3].wlan[0].mac packetDropDuplicateDetected:count 0
attr interpolationmode none
attr source packetDropReasonIsDuplicateDetected(packetDropped)
attr title "packet drops: duplicate detected, count"
scalar IEEE80211_AdHoc_Vadere.hostMobile[3].wlan[0].mac packetDropDuplicateDetected:sum(packetBytes) 0
attr interpolationmode none
attr source packetDropReasonIsDuplicateDetected(packetDropped)
attr title "packet drops: duplicate detected, sum(packetBytes)"
scalar IEEE80211_AdHoc_Vadere.hostMobile[3].wlan[0].mac packetDropOther:count 0
attr interpolationmode none
attr source packetDropReasonIsOther(packetDropped)
attr title "packet drops: other, count"
scalar IEEE80211_AdHoc_Vadere.hostMobile[3].wlan[0].mac packetDropOther:sum(packetBytes) 0
attr interpolationmode none
attr source packetDropReasonIsOther(packetDropped)
attr title "packet drops: other, sum(packetBytes)"
scalar IEEE80211_AdHoc_Vadere.hostMobile[3].wlan[0].mac linkBroken:count 0
attr interpolationmode none
attr title "link breaks, count"
scalar IEEE80211_AdHoc_Vadere.hostMobile[3].wlan[0].radio radioMode:count 3
attr interpolationmode sample-hold
attr source radioModeChanged
attr title "Radio mode, count"
scalar IEEE80211_AdHoc_Vadere.hostMobile[3].wlan[0].radio receptionState:count 1
attr interpolationmode sample-hold
attr source receptionStateChanged
attr title "Radio reception state, count"
scalar IEEE80211_AdHoc_Vadere.hostMobile[3].wlan[0].radio transmissionState:count 0
attr interpolationmode sample-hold
attr source transmissionStateChanged
attr title "Radio transmission state, count"
scalar IEEE80211_AdHoc_Vadere.hostMobile[3].ipv4.ip packetDropAddressResolutionFailed:count 0
attr interpolationmode none
attr source packetDropReasonIsAddressResolutionFailed(packetDropped)
attr title "packet drop: address resolution failed, count"
scalar IEEE80211_AdHoc_Vadere.hostMobile[3].ipv4.ip packetDropAddressResolutionFailed:sum(packetBytes) 0
attr interpolationmode none
attr source packetDropReasonIsAddressResolutionFailed(packetDropped)
attr title "packet drop: address resolution failed, sum(packetBytes)"
scalar IEEE80211_AdHoc_Vadere.hostMobile[3].ipv4.ip packetDropHopLimitReached:count 0
attr interpolationmode none
attr source packetDropReasonIsHopLimitReached(packetDropped)
attr title "packet drop: hop limit reached, count"
scalar IEEE80211_AdHoc_Vadere.hostMobile[3].ipv4.ip packetDropHopLimitReached:sum(packetBytes) 0
attr interpolationmode none
attr source packetDropReasonIsHopLimitReached(packetDropped)
attr title "packet drop: hop limit reached, sum(packetBytes)"
scalar IEEE80211_AdHoc_Vadere.hostMobile[3].ipv4.ip packetDropForwardingDisabled:count 0
attr interpolationmode none
attr source packetDropReasonIsForwardingDisabled(packetDropped)
attr title "packet drop: forwarding disabled, count"
scalar IEEE80211_AdHoc_Vadere.hostMobile[3].ipv4.ip packetDropForwardingDisabled:sum(packetBytes) 0
attr interpolationmode none
attr source packetDropReasonIsForwardingDisabled(packetDropped)
attr title "packet drop: forwarding disabled, sum(packetBytes)"
scalar IEEE80211_AdHoc_Vadere.hostMobile[3].ipv4.ip packetDropNoInterfaceFound:count 0
attr interpolationmode none
attr source packetDropReasonIsNoInterfaceFound(packetDropped)
attr title "packet drop: no interface found, count"
scalar IEEE80211_AdHoc_Vadere.hostMobile[3].ipv4.ip packetDropNoInterfaceFound:sum(packetBytes) 0
attr interpolationmode none
attr source packetDropReasonIsNoInterfaceFound(packetDropped)
attr title "packet drop: no interface found, sum(packetBytes)"
scalar IEEE80211_AdHoc_Vadere.hostMobile[3].ipv4.ip packetDropNoRouteFound:count 0
attr interpolationmode none
attr source packetDropReasonIsNoRouteFound(packetDropped)
attr title "packet drop: no route found, count"
scalar IEEE80211_AdHoc_Vadere.hostMobile[3].ipv4.ip packetDropNoRouteFound:sum(packetBytes) 0
attr interpolationmode none
attr source packetDropReasonIsNoRouteFound(packetDropped)
attr title "packet drop: no route found, sum(packetBytes)"
scalar IEEE80211_AdHoc_Vadere.hostMobile[3].ipv4.ip packetDropUndefined:count 0
attr interpolationmode none
attr source packetDropReasonIsUndefined(packetDropped)
attr title "packet drop: undefined, count"
scalar IEEE80211_AdHoc_Vadere.hostMobile[3].ipv4.ip packetDropUndefined:sum(packetBytes) 0
attr interpolationmode none
attr source packetDropReasonIsUndefined(packetDropped)
attr title "packet drop: undefined, sum(packetBytes)"
scalar IEEE80211_AdHoc_Vadere.hostMobile[3].ipv4.arp arpResolutionFailed:count 0
attr title "ARP failed resolutions, count"
scalar IEEE80211_AdHoc_Vadere.hostMobile[3].ipv4.arp arpResolutionCompleted:count 0
attr title "ARP completed resolutions, count"
scalar IEEE80211_AdHoc_Vadere.hostMobile[3].ipv4.arp arpResolutionInitiated:count 0
attr title "ARP initiated resolutions, count"
scalar IEEE80211_AdHoc_Vadere.hostMobile[3].ipv4.arp arpReplySent:count 0
attr source arpReplySent
attr title "ARP replies sent, count"
scalar IEEE80211_AdHoc_Vadere.hostMobile[3].ipv4.arp arpReplySent:sum(packetBytes) 0
attr source arpReplySent
attr title "ARP replies sent, sum(packetBytes)"
scalar IEEE80211_AdHoc_Vadere.hostMobile[3].ipv4.arp arpRequestSent:count 0
attr source arpRequestSent
attr title "ARP request sent, count"
scalar IEEE80211_AdHoc_Vadere.hostMobile[3].ipv4.arp arpRequestSent:sum(packetBytes) 0
attr source arpRequestSent
attr title "ARP request sent, sum(packetBytes)"
scalar IEEE80211_AdHoc_Vadere.hostMobile[3].udp packetReceived:count 0
attr interpolationmode none
attr source packetReceived
attr title "packets received, count"
scalar IEEE80211_AdHoc_Vadere.hostMobile[3].udp packetReceived:sum(packetBytes) 0
attr interpolationmode none
attr source packetReceived
attr title "packets received, sum(packetBytes)"
scalar IEEE80211_AdHoc_Vadere.hostMobile[3].udp packetSent:count 0
attr interpolationmode none
attr source packetSent
attr title "packets sent, count"
scalar IEEE80211_AdHoc_Vadere.hostMobile[3].udp packetSent:sum(packetBytes) 0
attr interpolationmode none
attr source packetSent
attr title "packets sent, sum(packetBytes)"
scalar IEEE80211_AdHoc_Vadere.hostMobile[3].udp passedUpPk:count 0
attr interpolationmode none
attr source packetSentToUpper
attr title "packets passed up, count"
scalar IEEE80211_AdHoc_Vadere.hostMobile[3].udp droppedPkWrongPort:count 0
attr interpolationmode none
attr source packetDropReasonIsNoPortFound(packetDropped)
attr title "packets dropped (wrong port), count"
scalar IEEE80211_AdHoc_Vadere.hostMobile[3].udp droppedPkBadChecksum:count 0
attr interpolationmode none
attr source packetDropReasonIsIncorrectlyReceived(packetDropped)
attr title "packets dropped (checksum error), count"
statistic IEEE80211_AdHoc_Vadere.hostMobile[3].app[0] incidentAge:stats
field count 0
field mean -nan
field stddev nan
field min nan
field max nan
field sum 0
field sqrsum 0
attr interpolationmode none
attr source incidentAge(packetReceived)
attr title "incidentAge, stats"
attr unit s
statistic IEEE80211_AdHoc_Vadere.hostMobile[3].app[0] lastHopAge:stats
field count 0
field mean -nan
field stddev nan
field min nan
field max nan
field sum 0
field sqrsum 0
attr interpolationmode none
attr source lastHopAge(packetReceived)
attr title "lastHopAge, stats"
attr unit s
scalar IEEE80211_AdHoc_Vadere.hostMobile[3].app[0] packetReceived:count 0
attr interpolationmode none
attr source packetReceived
attr title "packets received, count"
scalar IEEE80211_AdHoc_Vadere.hostMobile[3].app[0] packetReceived:sum(packetBytes) 0
attr interpolationmode none
attr source packetReceived
attr title "packets received, sum(packetBytes)"
scalar IEEE80211_AdHoc_Vadere.hostMobile[3].app[0] packetSent:count 0
attr interpolationmode none
attr source packetSent
attr title "packets sent, count"
scalar IEEE80211_AdHoc_Vadere.hostMobile[3].app[0] packetSent:sum(packetBytes) 0
attr interpolationmode none
attr source packetSent
attr title "packets sent, sum(packetBytes)"
scalar IEEE80211_AdHoc_Vadere.hostMobile[3].app[1] "packets sent" 0
scalar IEEE80211_AdHoc_Vadere.hostMobile[3].app[1] "packets received" 0
scalar IEEE80211_AdHoc_Vadere.hostMobile[3].app[1] packetReceived:count 0
attr interpolationmode none
attr source packetReceived
attr title "packets received, count"
scalar IEEE80211_AdHoc_Vadere.hostMobile[3].app[1] packetReceived:sum(packetBytes) 0
attr interpolationmode none
attr source packetReceived
attr title "packets received, sum(packetBytes)"
statistic IEEE80211_AdHoc_Vadere.hostMobile[3].app[1] rcvdPkLifetime:stats
field count 0
field mean -nan
field stddev nan
field min nan
field max nan
field sum 0
field sqrsum 0
attr interpolationmode none
attr source dataAge(packetReceived)
attr title "received packet lifetime, stats"
attr unit s
scalar IEEE80211_AdHoc_Vadere.hostMobile[3].app[1] packetSent:count 0
attr interpolationmode none
attr source packetSent
attr title "packets sent, count"
scalar IEEE80211_AdHoc_Vadere.hostMobile[3].app[1] packetSent:sum(packetBytes) 0
attr interpolationmode none
attr source packetSent
attr title "packets sent, sum(packetBytes)"
scalar IEEE80211_AdHoc_Vadere.hostMobile[11].app[0] internalId 852
scalar IEEE80211_AdHoc_Vadere.hostMobile[11].app[0] moduleCreationTime 109.2
attr unit s
scalar IEEE80211_AdHoc_Vadere.hostMobile[11].app[0] externalId 12
scalar IEEE80211_AdHoc_Vadere.hostMobile[12].app[0] internalId 914
scalar IEEE80211_AdHoc_Vadere.hostMobile[12].app[0] moduleCreationTime 132
attr unit s
scalar IEEE80211_AdHoc_Vadere.hostMobile[12].app[0] externalId 13
scalar IEEE80211_AdHoc_Vadere.hostMobile[13].app[0] internalId 976
scalar IEEE80211_AdHoc_Vadere.hostMobile[13].app[0] moduleCreationTime 132.8
attr unit s
scalar IEEE80211_AdHoc_Vadere.hostMobile[13].app[0] externalId 14
scalar IEEE80211_AdHoc_Vadere.hostMobile[6].mobility externalId:last 7
attr source veins_inet_mobility_base_mobility_pre_init
scalar IEEE80211_AdHoc_Vadere.hostMobile[6].lo[0].lo rcvdPkFromHl:count 0
attr interpolationmode none
attr source packetReceivedFromUpper
attr title "packets received from higher layer, count"
scalar IEEE80211_AdHoc_Vadere.hostMobile[6].lo[0].lo rcvdPkFromHl:sum(packetBytes) 0
attr interpolationmode none
attr source packetReceivedFromUpper
attr title "packets received from higher layer, sum(packetBytes)"
scalar IEEE80211_AdHoc_Vadere.hostMobile[6].lo[0].lo passedUpPk:count 0
attr interpolationmode none
attr source packetSentToUpper
attr title "packets passed to higher layer, count"
scalar IEEE80211_AdHoc_Vadere.hostMobile[6].lo[0].lo passedUpPk:sum(packetBytes) 0
attr interpolationmode none
attr source packetSentToUpper
attr title "packets passed to higher layer, sum(packetBytes)"
scalar IEEE80211_AdHoc_Vadere.hostMobile[6].wlan[0].mac.dcf.channelAccess.pendingQueue packetPopped:count 36
attr interpolationmode none
attr title "packet popped, count"
scalar IEEE80211_AdHoc_Vadere.hostMobile[6].wlan[0].mac.dcf.channelAccess.pendingQueue packetPopped:sum(packetBytes) 2304
attr interpolationmode none
attr title "packet popped, sum(packetBytes)"
scalar IEEE80211_AdHoc_Vadere.hostMobile[6].wlan[0].mac.dcf.channelAccess.pendingQueue queueLength:max 1
attr interpolationmode sample-hold
attr source "count(packetPushed) - count(packetPopped) - count(packetRemoved) - count(packetDropped)"
attr title "queue length, max"
scalar IEEE80211_AdHoc_Vadere.hostMobile[6].wlan[0].mac.dcf.channelAccess.pendingQueue queueLength:timeavg 0
attr interpolationmode sample-hold
attr source "count(packetPushed) - count(packetPopped) - count(packetRemoved) - count(packetDropped)"
attr title "queue length, timeavg"
scalar IEEE80211_AdHoc_Vadere.hostMobile[6].wlan[0].mac.dcf.channelAccess.pendingQueue packetPushed:count 36
attr interpolationmode none
attr title "packet pushed, count"
scalar IEEE80211_AdHoc_Vadere.hostMobile[6].wlan[0].mac.dcf.channelAccess.pendingQueue packetPushed:sum(packetBytes) 2304
attr interpolationmode none
attr title "packet pushed, sum(packetBytes)"
scalar IEEE80211_AdHoc_Vadere.hostMobile[6].wlan[0].mac.dcf.channelAccess.pendingQueue packetDropQueueOverflow:count 0
attr interpolationmode none
attr source packetDropReasonIsQueueOverflow(packetDropped)
attr title "packet drops: queue overflow, count"
scalar IEEE80211_AdHoc_Vadere.hostMobile[6].wlan[0].mac.dcf.channelAccess.pendingQueue packetDropQueueOverflow:sum(packetBytes) 0
attr interpolationmode none
attr source packetDropReasonIsQueueOverflow(packetDropped)
attr title "packet drops: queue overflow, sum(packetBytes)"
scalar IEEE80211_AdHoc_Vadere.hostMobile[6].wlan[0].mac.dcf.channelAccess.pendingQueue packetRemoved:count 0
attr interpolationmode none
attr title "packets removed, count"
scalar IEEE80211_AdHoc_Vadere.hostMobile[6].wlan[0].mac.dcf.channelAccess.pendingQueue packetRemoved:sum(packetBytes) 0
attr interpolationmode none
attr title "packets removed, sum(packetBytes)"
scalar IEEE80211_AdHoc_Vadere.hostMobile[6].wlan[0].mac.dcf.channelAccess.inProgressFrames queueLength:max 1
attr interpolationmode sample-hold
attr source "count(packetEnqueued) - count(packetDequeued)"
attr title "queue length, max"
scalar IEEE80211_AdHoc_Vadere.hostMobile[6].wlan[0].mac.dcf.channelAccess.inProgressFrames queueLength:timeavg 5.1088383153354e-05
attr interpolationmode sample-hold
attr source "count(packetEnqueued) - count(packetDequeued)"
attr title "queue length, timeavg"
scalar IEEE80211_AdHoc_Vadere.hostMobile[6].wlan[0].mac.dcf.channelAccess.contention channelAccessGranted:count 36
attr title "channel access granted, count"
scalar IEEE80211_AdHoc_Vadere.hostMobile[6].wlan[0].mac.dcf.channelAccess.contention stateChanged:count 430
attr interpolationmode none
attr title "contention state changed, count"
scalar IEEE80211_AdHoc_Vadere.hostMobile[6].wlan[0].mac.dcf.channelAccess channelOwnershipChanged:count 72
attr interpolationmode sample-hold
attr title "channel ownership, count"
scalar IEEE80211_AdHoc_Vadere.hostMobile[6].wlan[0].mac.dcf.originatorMacDataService packetAggregated:count 0
attr title "packets aggregated, count"
scalar IEEE80211_AdHoc_Vadere.hostMobile[6].wlan[0].mac.dcf.originatorMacDataService packetFragmented:count 0
attr title "packets fragmented, count"
scalar IEEE80211_AdHoc_Vadere.hostMobile[6].wlan[0].mac.dcf.recipientMacDataService packetDeaggregated:count 0
attr title "packets deaggregated, count"
scalar IEEE80211_AdHoc_Vadere.hostMobile[6].wlan[0].mac.dcf.recipientMacDataService packetDefragmented:count 35
attr title "packets defragmented, count"
scalar IEEE80211_AdHoc_Vadere.hostMobile[6].wlan[0].mac.dcf.recipientMacDataService packetDropDuplicateDetected:count 0
attr interpolationmode none
attr source packetDropReasonIsDuplicateDetected(packetDropped)
attr title "packet drops: duplicate detected, count"
scalar IEEE80211_AdHoc_Vadere.hostMobile[6].wlan[0].mac.dcf.recipientMacDataService packetDropDuplicateDetected:sum(packetBytes) 0
attr interpolationmode none
attr source packetDropReasonIsDuplicateDetected(packetDropped)
attr title "packet drops: duplicate detected, sum(packetBytes)"
scalar IEEE80211_AdHoc_Vadere.hostMobile[6].wlan[0].mac.dcf.recoveryProcedure retryLimitReached:count 0
attr title "retry limit reached, count"
scalar IEEE80211_AdHoc_Vadere.hostMobile[6].wlan[0].mac.dcf frameSequenceFinished:count 36
attr title "finished frame sequences, count"
scalar IEEE80211_AdHoc_Vadere.hostMobile[6].wlan[0].mac.dcf packetReceivedFromPeer:count 35
attr interpolationmode none
attr title "packets received, count"
scalar IEEE80211_AdHoc_Vadere.hostMobile[6].wlan[0].mac.dcf packetReceivedFromPeer:sum(packetBytes) 2240
attr interpolationmode none
attr title "packets received, sum(packetBytes)"
scalar IEEE80211_AdHoc_Vadere.hostMobile[6].wlan[0].mac.dcf packetReceivedFromPeerUnicast:count 0
attr interpolationmode none
attr source ieee80211Unicast(packetReceivedFromPeer)
attr title "packets received: unicast, count"
scalar IEEE80211_AdHoc_Vadere.hostMobile[6].wlan[0].mac.dcf packetReceivedFromPeerUnicast:sum(packetBytes) 0
attr interpolationmode none
attr source ieee80211Unicast(packetReceivedFromPeer)
attr title "packets received: unicast, sum(packetBytes)"
scalar IEEE80211_AdHoc_Vadere.hostMobile[6].wlan[0].mac.dcf packetReceivedFromPeerMulticast:count 35
attr interpolationmode none
attr source ieee80211Multicast(packetReceivedFromPeer)
attr title "packets received: multicast, count"
scalar IEEE80211_AdHoc_Vadere.hostMobile[6].wlan[0].mac.dcf packetReceivedFromPeerMulticast:sum(packetBytes) 2240
attr interpolationmode none
attr source ieee80211Multicast(packetReceivedFromPeer)
attr title "packets received: multicast, sum(packetBytes)"
scalar IEEE80211_AdHoc_Vadere.hostMobile[6].wlan[0].mac.dcf packetReceivedFromPeerBroadcast:count 35
attr interpolationmode none
attr source ieee80211Broadcast(packetReceivedFromPeer)
attr title "packets received: broadcast, count"
scalar IEEE80211_AdHoc_Vadere.hostMobile[6].wlan[0].mac.dcf packetReceivedFromPeerBroadcast:sum(packetBytes) 2240
attr interpolationmode none
attr source ieee80211Broadcast(packetReceivedFromPeer)
attr title "packets received: broadcast, sum(packetBytes)"
scalar IEEE80211_AdHoc_Vadere.hostMobile[6].wlan[0].mac.dcf packetReceivedFromPeerWithRetry:count 0
attr interpolationmode none
attr source ieee80211Retry(packetReceivedFromPeer)
attr title "packets received: with retry, count"
scalar IEEE80211_AdHoc_Vadere.hostMobile[6].wlan[0].mac.dcf packetReceivedFromPeerWithRetry:sum(packetBytes) 0
attr interpolationmode none
attr source ieee80211Retry(packetReceivedFromPeer)
attr title "packets received: with retry, sum(packetBytes)"
scalar IEEE80211_AdHoc_Vadere.hostMobile[6].wlan[0].mac.dcf packetReceivedFromPeerWithoutRetry:count 35
attr interpolationmode none
attr source ieee80211NotRetry(packetReceivedFromPeer)
attr title "packets received: without retry, count"
scalar IEEE80211_AdHoc_Vadere.hostMobile[6].wlan[0].mac.dcf packetReceivedFromPeerWithoutRetry:sum(packetBytes) 2240
attr interpolationmode none
attr source ieee80211NotRetry(packetReceivedFromPeer)
attr title "packets received: without retry, sum(packetBytes)"
scalar IEEE80211_AdHoc_Vadere.hostMobile[6].wlan[0].mac.dcf packetSentToPeer:count 36
attr interpolationmode none
attr title "packets sent, count"
scalar IEEE80211_AdHoc_Vadere.hostMobile[6].wlan[0].mac.dcf packetSentToPeer:sum(packetBytes) 2304
attr interpolationmode none
attr title "packets sent, sum(packetBytes)"
scalar IEEE80211_AdHoc_Vadere.hostMobile[6].wlan[0].mac.dcf packetSentToPeerUnicast:count 0
attr interpolationmode none
attr source ieee80211Unicast(packetSentToPeer)
attr title "packets sent: unicast, count"
scalar IEEE80211_AdHoc_Vadere.hostMobile[6].wlan[0].mac.dcf packetSentToPeerUnicast:sum(packetBytes) 0
attr interpolationmode none
attr source ieee80211Unicast(packetSentToPeer)
attr title "packets sent: unicast, sum(packetBytes)"
scalar IEEE80211_AdHoc_Vadere.hostMobile[6].wlan[0].mac.dcf packetSentToPeerMulticast:count 36
attr interpolationmode none
attr source ieee80211Multicast(packetSentToPeer)
attr title "packets sent: multicast, count"
scalar IEEE80211_AdHoc_Vadere.hostMobile[6].wlan[0].mac.dcf packetSentToPeerMulticast:sum(packetBytes) 2304
attr interpolationmode none
attr source ieee80211Multicast(packetSentToPeer)
attr title "packets sent: multicast, sum(packetBytes)"
scalar IEEE80211_AdHoc_Vadere.hostMobile[6].wlan[0].mac.dcf packetSentToPeerBroadcast:count 36
attr interpolationmode none
attr source ieee80211Broadcast(packetSentToPeer)
attr title "packets sent: broadcast , count"
scalar IEEE80211_AdHoc_Vadere.hostMobile[6].wlan[0].mac.dcf packetSentToPeerBroadcast:sum(packetBytes) 2304
attr interpolationmode none
attr source ieee80211Broadcast(packetSentToPeer)
attr title "packets sent: broadcast , sum(packetBytes)"
scalar IEEE80211_AdHoc_Vadere.hostMobile[6].wlan[0].mac.dcf packetSentToPeerWithRetry:count 0
attr interpolationmode none
attr source ieee80211Retry(packetSentToPeer)
attr title "packets sent: with retry, count"
scalar IEEE80211_AdHoc_Vadere.hostMobile[6].wlan[0].mac.dcf packetSentToPeerWithRetry:sum(packetBytes) 0
attr interpolationmode none
attr source ieee80211Retry(packetSentToPeer)
attr title "packets sent: with retry, sum(packetBytes)"
scalar IEEE80211_AdHoc_Vadere.hostMobile[6].wlan[0].mac.dcf packetSentToPeerWithoutRetry:count 36
attr interpolationmode none
attr source ieee80211NotRetry(packetSentToPeer)
attr title "packets sent: without retry, count"
scalar IEEE80211_AdHoc_Vadere.hostMobile[6].wlan[0].mac.dcf packetSentToPeerWithoutRetry:sum(packetBytes) 2304
attr interpolationmode none
attr source ieee80211NotRetry(packetSentToPeer)
attr title "packets sent: without retry, sum(packetBytes)"
scalar IEEE80211_AdHoc_Vadere.hostMobile[6].wlan[0].mac.dcf packetDrop:count 0
attr interpolationmode none
attr source packetDropped
attr title "packet drops, count"
scalar IEEE80211_AdHoc_Vadere.hostMobile[6].wlan[0].mac.dcf packetDrop:sum(packetBytes) 0
attr interpolationmode none
attr source packetDropped
attr title "packet drops, sum(packetBytes)"
scalar IEEE80211_AdHoc_Vadere.hostMobile[6].wlan[0].mac.dcf packetDropNotAddressedToUs:count 0
attr interpolationmode none
attr source packetDropReasonIsNotAddressedToUs(packetDropped)
attr title "packet drops: not addressed to us, count"
scalar IEEE80211_AdHoc_Vadere.hostMobile[6].wlan[0].mac.dcf packetDropNotAddressedToUs:sum(packetBytes) 0
attr interpolationmode none
attr source packetDropReasonIsNotAddressedToUs(packetDropped)
attr title "packet drops: not addressed to us, sum(packetBytes)"
scalar IEEE80211_AdHoc_Vadere.hostMobile[6].wlan[0].mac.dcf packetDropQueueOverflow:count 0
attr interpolationmode none
attr source packetDropReasonIsQueueOverflow(packetDropped)
attr title "packet drops: queue overflow, count"
scalar IEEE80211_AdHoc_Vadere.hostMobile[6].wlan[0].mac.dcf packetDropQueueOverflow:sum(packetBytes) 0
attr interpolationmode none
attr source packetDropReasonIsQueueOverflow(packetDropped)
attr title "packet drops: queue overflow, sum(packetBytes)"
scalar IEEE80211_AdHoc_Vadere.hostMobile[6].wlan[0].mac.dcf packetDropRetryLimitReached:count 0
attr interpolationmode none
attr source packetDropReasonIsRetryLimitReached(packetDropped)
attr title "packet drops: retry limit reached, count"
scalar IEEE80211_AdHoc_Vadere.hostMobile[6].wlan[0].mac.dcf packetDropRetryLimitReached:sum(packetBytes) 0
attr interpolationmode none
attr source packetDropReasonIsRetryLimitReached(packetDropped)
attr title "packet drops: retry limit reached, sum(packetBytes)"
scalar IEEE80211_AdHoc_Vadere.hostMobile[6].wlan[0].mac.dcf linkBroken:count 0
attr interpolationmode none
attr title "link breaks, count"
scalar IEEE80211_AdHoc_Vadere.hostMobile[6].wlan[0].mac packetReceivedFromLower:count 35
attr interpolationmode none
attr title "packets received from lower layer, count"
scalar IEEE80211_AdHoc_Vadere.hostMobile[6].wlan[0].mac packetReceivedFromLower:sum(packetBytes) 2240
attr interpolationmode none
attr title "packets received from lower layer, sum(packetBytes)"
scalar IEEE80211_AdHoc_Vadere.hostMobile[6].wlan[0].mac packetSentToLower:count 36
attr interpolationmode none
attr title "packets sent to lower layer, count"
scalar IEEE80211_AdHoc_Vadere.hostMobile[6].wlan[0].mac packetSentToLower:sum(packetBytes) 2304
attr interpolationmode none
attr title "packets sent to lower layer, sum(packetBytes)"
scalar IEEE80211_AdHoc_Vadere.hostMobile[6].wlan[0].mac packetReceivedFromUpper:count 36
attr interpolationmode none
attr title "packets received from upper layer, count"
scalar IEEE80211_AdHoc_Vadere.hostMobile[6].wlan[0].mac packetReceivedFromUpper:sum(packetBytes) 1296
attr interpolationmode none
attr title "packets received from upper layer, sum(packetBytes)"
scalar IEEE80211_AdHoc_Vadere.hostMobile[6].wlan[0].mac packetSentToUpper:count 35
attr interpolationmode none
attr title "packets sent to upper layer, count"
scalar IEEE80211_AdHoc_Vadere.hostMobile[6].wlan[0].mac packetSentToUpper:sum(packetBytes) 1260
attr interpolationmode none
attr title "packets sent to upper layer, sum(packetBytes)"
scalar IEEE80211_AdHoc_Vadere.hostMobile[6].wlan[0].mac packetDrop:count 0
attr interpolationmode none
attr source packetDropped
attr title "packet drops, count"
scalar IEEE80211_AdHoc_Vadere.hostMobile[6].wlan[0].mac packetDrop:sum(packetBytes) 0
attr interpolationmode none
attr source packetDropped
attr title "packet drops, sum(packetBytes)"
scalar IEEE80211_AdHoc_Vadere.hostMobile[6].wlan[0].mac packetDropIncorrectlyReceived:count 0
attr interpolationmode none
attr source packetDropReasonIsIncorrectlyReceived(packetDropped)
attr title "packet drops: incorrectly received, count"
scalar IEEE80211_AdHoc_Vadere.hostMobile[6].wlan[0].mac packetDropIncorrectlyReceived:sum(packetBytes) 0
attr interpolationmode none
attr source packetDropReasonIsIncorrectlyReceived(packetDropped)
attr title "packet drops: incorrectly received, sum(packetBytes)"
scalar IEEE80211_AdHoc_Vadere.hostMobile[6].wlan[0].mac packetDropNotAddressedToUs:count 0
attr interpolationmode none
attr source packetDropReasonIsNotAddressedToUs(packetDropped)
attr title "packet drops: not addressed to us, count"
scalar IEEE80211_AdHoc_Vadere.hostMobile[6].wlan[0].mac packetDropNotAddressedToUs:sum(packetBytes) 0
attr interpolationmode none
attr source packetDropReasonIsNotAddressedToUs(packetDropped)
attr title "packet drops: not addressed to us, sum(packetBytes)"
scalar IEEE80211_AdHoc_Vadere.hostMobile[6].wlan[0].mac packetDropQueueOverflow:count 0
attr interpolationmode none
attr source packetDropReasonIsQueueOverflow(packetDropped)
attr title "packet drops: queue overflow, count"
scalar IEEE80211_AdHoc_Vadere.hostMobile[6].wlan[0].mac packetDropQueueOverflow:sum(packetBytes) 0
attr interpolationmode none
attr source packetDropReasonIsQueueOverflow(packetDropped)
attr title "packet drops: queue overflow, sum(packetBytes)"
scalar IEEE80211_AdHoc_Vadere.hostMobile[6].wlan[0].mac packetDropRetryLimitReached:count 0
attr interpolationmode none
attr source packetDropReasonIsRetryLimitReached(packetDropped)
attr title "packet drops: retry limit reached, count"
scalar IEEE80211_AdHoc_Vadere.hostMobile[6].wlan[0].mac packetDropRetryLimitReached:sum(packetBytes) 0
attr interpolationmode none
attr source packetDropReasonIsRetryLimitReached(packetDropped)
attr title "packet drops: retry limit reached, sum(packetBytes)"
scalar IEEE80211_AdHoc_Vadere.hostMobile[6].wlan[0].mac packetDropDuplicateDetected:count 0
attr interpolationmode none
attr source packetDropReasonIsDuplicateDetected(packetDropped)
attr title "packet drops: duplicate detected, count"
scalar IEEE80211_AdHoc_Vadere.hostMobile[6].wlan[0].mac packetDropDuplicateDetected:sum(packetBytes) 0
attr interpolationmode none
attr source packetDropReasonIsDuplicateDetected(packetDropped)
attr title "packet drops: duplicate detected, sum(packetBytes)"
scalar IEEE80211_AdHoc_Vadere.hostMobile[6].wlan[0].mac packetDropOther:count 0
attr interpolationmode none
attr source packetDropReasonIsOther(packetDropped)
attr title "packet drops: other, count"
scalar IEEE80211_AdHoc_Vadere.hostMobile[6].wlan[0].mac packetDropOther:sum(packetBytes) 0
attr interpolationmode none
attr source packetDropReasonIsOther(packetDropped)
attr title "packet drops: other, sum(packetBytes)"
scalar IEEE80211_AdHoc_Vadere.hostMobile[6].wlan[0].mac linkBroken:count 0
attr interpolationmode none
attr title "link breaks, count"
scalar IEEE80211_AdHoc_Vadere.hostMobile[6].wlan[0].radio radioMode:count 75
attr interpolationmode sample-hold
attr source radioModeChanged
attr title "Radio mode, count"
scalar IEEE80211_AdHoc_Vadere.hostMobile[6].wlan[0].radio receptionState:count 143
attr interpolationmode sample-hold
attr source receptionStateChanged
attr title "Radio reception state, count"
scalar IEEE80211_AdHoc_Vadere.hostMobile[6].wlan[0].radio transmissionState:count 144
attr interpolationmode sample-hold
attr source transmissionStateChanged
attr title "Radio transmission state, count"
scalar IEEE80211_AdHoc_Vadere.hostMobile[6].ipv4.ip packetDropAddressResolutionFailed:count 3298
attr interpolationmode none
attr source packetDropReasonIsAddressResolutionFailed(packetDropped)
attr title "packet drop: address resolution failed, count"
scalar IEEE80211_AdHoc_Vadere.hostMobile[6].ipv4.ip packetDropAddressResolutionFailed:sum(packetBytes) 5044291
attr interpolationmode none
attr source packetDropReasonIsAddressResolutionFailed(packetDropped)
attr title "packet drop: address resolution failed, sum(packetBytes)"
scalar IEEE80211_AdHoc_Vadere.hostMobile[6].ipv4.ip packetDropHopLimitReached:count 0
attr interpolationmode none
attr source packetDropReasonIsHopLimitReached(packetDropped)
attr title "packet drop: hop limit reached, count"
scalar IEEE80211_AdHoc_Vadere.hostMobile[6].ipv4.ip packetDropHopLimitReached:sum(packetBytes) 0
attr interpolationmode none
attr source packetDropReasonIsHopLimitReached(packetDropped)
attr title "packet drop: hop limit reached, sum(packetBytes)"
scalar IEEE80211_AdHoc_Vadere.hostMobile[6].ipv4.ip packetDropForwardingDisabled:count 0
attr interpolationmode none
attr source packetDropReasonIsForwardingDisabled(packetDropped)
attr title "packet drop: forwarding disabled, count"
scalar IEEE80211_AdHoc_Vadere.hostMobile[6].ipv4.ip packetDropForwardingDisabled:sum(packetBytes) 0
attr interpolationmode none
attr source packetDropReasonIsForwardingDisabled(packetDropped)
attr title "packet drop: forwarding disabled, sum(packetBytes)"
scalar IEEE80211_AdHoc_Vadere.hostMobile[6].ipv4.ip packetDropNoInterfaceFound:count 0
attr interpolationmode none
attr source packetDropReasonIsNoInterfaceFound(packetDropped)
attr title "packet drop: no interface found, count"
scalar IEEE80211_AdHoc_Vadere.hostMobile[6].ipv4.ip packetDropNoInterfaceFound:sum(packetBytes) 0
attr interpolationmode none
attr source packetDropReasonIsNoInterfaceFound(packetDropped)
attr title "packet drop: no interface found, sum(packetBytes)"
scalar IEEE80211_AdHoc_Vadere.hostMobile[6].ipv4.ip packetDropNoRouteFound:count 0
attr interpolationmode none
attr source packetDropReasonIsNoRouteFound(packetDropped)
attr title "packet drop: no route found, count"
scalar IEEE80211_AdHoc_Vadere.hostMobile[6].ipv4.ip packetDropNoRouteFound:sum(packetBytes) 0
attr interpolationmode none
attr source packetDropReasonIsNoRouteFound(packetDropped)
attr title "packet drop: no route found, sum(packetBytes)"
scalar IEEE80211_AdHoc_Vadere.hostMobile[6].ipv4.ip packetDropUndefined:count 0
attr interpolationmode none
attr source packetDropReasonIsUndefined(packetDropped)
attr title "packet drop: undefined, count"
scalar IEEE80211_AdHoc_Vadere.hostMobile[6].ipv4.ip packetDropUndefined:sum(packetBytes) 0
attr interpolationmode none
attr source packetDropReasonIsUndefined(packetDropped)
attr title "packet drop: undefined, sum(packetBytes)"
scalar IEEE80211_AdHoc_Vadere.hostMobile[6].ipv4.arp arpResolutionFailed:count 11
attr title "ARP failed resolutions, count"
scalar IEEE80211_AdHoc_Vadere.hostMobile[6].ipv4.arp arpResolutionCompleted:count 0
attr title "ARP completed resolutions, count"
scalar IEEE80211_AdHoc_Vadere.hostMobile[6].ipv4.arp arpResolutionInitiated:count 12
attr title "ARP initiated resolutions, count"
scalar IEEE80211_AdHoc_Vadere.hostMobile[6].ipv4.arp arpReplySent:count 0
attr source arpReplySent
attr title "ARP replies sent, count"
scalar IEEE80211_AdHoc_Vadere.hostMobile[6].ipv4.arp arpReplySent:sum(packetBytes) 0
attr source arpReplySent
attr title "ARP replies sent, sum(packetBytes)"
scalar IEEE80211_AdHoc_Vadere.hostMobile[6].ipv4.arp arpRequestSent:count 36
attr source arpRequestSent
attr title "ARP request sent, count"
scalar IEEE80211_AdHoc_Vadere.hostMobile[6].ipv4.arp arpRequestSent:sum(packetBytes) 1008
attr source arpRequestSent
attr title "ARP request sent, sum(packetBytes)"
scalar IEEE80211_AdHoc_Vadere.hostMobile[6].udp packetReceived:count 0
attr interpolationmode none
attr source packetReceived
attr title "packets received, count"
scalar IEEE80211_AdHoc_Vadere.hostMobile[6].udp packetReceived:sum(packetBytes) 0
attr interpolationmode none
attr source packetReceived
attr title "packets received, sum(packetBytes)"
scalar IEEE80211_AdHoc_Vadere.hostMobile[6].udp packetSent:count 1756
attr interpolationmode none
attr source packetSent
attr title "packets sent, count"
scalar IEEE80211_AdHoc_Vadere.hostMobile[6].udp packetSent:sum(packetBytes) 5301364
attr interpolationmode none
attr source packetSent
attr title "packets sent, sum(packetBytes)"
scalar IEEE80211_AdHoc_Vadere.hostMobile[6].udp passedUpPk:count 0
attr interpolationmode none
attr source packetSentToUpper
attr title "packets passed up, count"
scalar IEEE80211_AdHoc_Vadere.hostMobile[6].udp droppedPkWrongPort:count 0
attr interpolationmode none
attr source packetDropReasonIsNoPortFound(packetDropped)
attr title "packets dropped (wrong port), count"
scalar IEEE80211_AdHoc_Vadere.hostMobile[6].udp droppedPkBadChecksum:count 0
attr interpolationmode none
attr source packetDropReasonIsIncorrectlyReceived(packetDropped)
attr title "packets dropped (checksum error), count"
statistic IEEE80211_AdHoc_Vadere.hostMobile[6].app[0] incidentAge:stats
field count 0
field mean -nan
field stddev nan
field min nan
field max nan
field sum 0
field sqrsum 0
attr interpolationmode none
attr source incidentAge(packetReceived)
attr title "incidentAge, stats"
attr unit s
statistic IEEE80211_AdHoc_Vadere.hostMobile[6].app[0] lastHopAge:stats
field count 0
field mean -nan
field stddev nan
field min nan
field max nan
field sum 0
field sqrsum 0
attr interpolationmode none
attr source lastHopAge(packetReceived)
attr title "lastHopAge, stats"
attr unit s
scalar IEEE80211_AdHoc_Vadere.hostMobile[6].app[0] packetReceived:count 0
attr interpolationmode none
attr source packetReceived
attr title "packets received, count"
scalar IEEE80211_AdHoc_Vadere.hostMobile[6].app[0] packetReceived:sum(packetBytes) 0
attr interpolationmode none
attr source packetReceived
attr title "packets received, sum(packetBytes)"
scalar IEEE80211_AdHoc_Vadere.hostMobile[6].app[0] packetSent:count 0
attr interpolationmode none
attr source packetSent
attr title "packets sent, count"
scalar IEEE80211_AdHoc_Vadere.hostMobile[6].app[0] packetSent:sum(packetBytes) 0
attr interpolationmode none
attr source packetSent
attr title "packets sent, sum(packetBytes)"
scalar IEEE80211_AdHoc_Vadere.hostMobile[6].app[1] "packets sent" 1756
scalar IEEE80211_AdHoc_Vadere.hostMobile[6].app[1] "packets received" 0
scalar IEEE80211_AdHoc_Vadere.hostMobile[6].app[1] packetReceived:count 0
attr interpolationmode none
attr source packetReceived
attr title "packets received, count"
scalar IEEE80211_AdHoc_Vadere.hostMobile[6].app[1] packetReceived:sum(packetBytes) 0
attr interpolationmode none
attr source packetReceived
attr title "packets received, sum(packetBytes)"
statistic IEEE80211_AdHoc_Vadere.hostMobile[6].app[1] rcvdPkLifetime:stats
field count 0
field mean -nan
field stddev nan
field min nan
field max nan
field sum 0
field sqrsum 0
attr interpolationmode none
attr source dataAge(packetReceived)
attr title "received packet lifetime, stats"
attr unit s
scalar IEEE80211_AdHoc_Vadere.hostMobile[6].app[1] packetSent:count 1756
attr interpolationmode none
attr source packetSent
attr title "packets sent, count"
scalar IEEE80211_AdHoc_Vadere.hostMobile[6].app[1] packetSent:sum(packetBytes) 5287316
attr interpolationmode none
attr source packetSent
attr title "packets sent, sum(packetBytes)"
scalar IEEE80211_AdHoc_Vadere.hostMobile[14].app[0] internalId 1038
scalar IEEE80211_AdHoc_Vadere.hostMobile[14].app[0] moduleCreationTime 143.6
attr unit s
scalar IEEE80211_AdHoc_Vadere.hostMobile[14].app[0] externalId 15
scalar IEEE80211_AdHoc_Vadere.hostMobile[15].app[0] internalId 1100
scalar IEEE80211_AdHoc_Vadere.hostMobile[15].app[0] moduleCreationTime 147.2
attr unit s
scalar IEEE80211_AdHoc_Vadere.hostMobile[15].app[0] externalId 16
scalar IEEE80211_AdHoc_Vadere.hostMobile[16].app[0] internalId 1162
scalar IEEE80211_AdHoc_Vadere.hostMobile[16].app[0] moduleCreationTime 154.4
attr unit s
scalar IEEE80211_AdHoc_Vadere.hostMobile[16].app[0] externalId 17
scalar IEEE80211_AdHoc_Vadere.hostMobile[2].mobility externalId:last 3
attr source veins_inet_mobility_base_mobility_pre_init
scalar IEEE80211_AdHoc_Vadere.hostMobile[2].lo[0].lo rcvdPkFromHl:count 0
attr interpolationmode none
attr source packetReceivedFromUpper
attr title "packets received from higher layer, count"
scalar IEEE80211_AdHoc_Vadere.hostMobile[2].lo[0].lo rcvdPkFromHl:sum(packetBytes) 0
attr interpolationmode none
attr source packetReceivedFromUpper
attr title "packets received from higher layer, sum(packetBytes)"
scalar IEEE80211_AdHoc_Vadere.hostMobile[2].lo[0].lo passedUpPk:count 0
attr interpolationmode none
attr source packetSentToUpper
attr title "packets passed to higher layer, count"
scalar IEEE80211_AdHoc_Vadere.hostMobile[2].lo[0].lo passedUpPk:sum(packetBytes) 0
attr interpolationmode none
attr source packetSentToUpper
attr title "packets passed to higher layer, sum(packetBytes)"
scalar IEEE80211_AdHoc_Vadere.hostMobile[2].wlan[0].mac.dcf.channelAccess.pendingQueue packetPopped:count 64
attr interpolationmode none
attr title "packet popped, count"
scalar IEEE80211_AdHoc_Vadere.hostMobile[2].wlan[0].mac.dcf.channelAccess.pendingQueue packetPopped:sum(packetBytes) 4096
attr interpolationmode none
attr title "packet popped, sum(packetBytes)"
scalar IEEE80211_AdHoc_Vadere.hostMobile[2].wlan[0].mac.dcf.channelAccess.pendingQueue queueLength:max 1
attr interpolationmode sample-hold
attr source "count(packetPushed) - count(packetPopped) - count(packetRemoved) - count(packetDropped)"
attr title "queue length, max"
scalar IEEE80211_AdHoc_Vadere.hostMobile[2].wlan[0].mac.dcf.channelAccess.pendingQueue queueLength:timeavg 4.6091722102736e-05
attr interpolationmode sample-hold
attr source "count(packetPushed) - count(packetPopped) - count(packetRemoved) - count(packetDropped)"
attr title "queue length, timeavg"
scalar IEEE80211_AdHoc_Vadere.hostMobile[2].wlan[0].mac.dcf.channelAccess.pendingQueue packetPushed:count 64
attr interpolationmode none
attr title "packet pushed, count"
scalar IEEE80211_AdHoc_Vadere.hostMobile[2].wlan[0].mac.dcf.channelAccess.pendingQueue packetPushed:sum(packetBytes) 4096
attr interpolationmode none
attr title "packet pushed, sum(packetBytes)"
scalar IEEE80211_AdHoc_Vadere.hostMobile[2].wlan[0].mac.dcf.channelAccess.pendingQueue packetDropQueueOverflow:count 0
attr interpolationmode none
attr source packetDropReasonIsQueueOverflow(packetDropped)
attr title "packet drops: queue overflow, count"
scalar IEEE80211_AdHoc_Vadere.hostMobile[2].wlan[0].mac.dcf.channelAccess.pendingQueue packetDropQueueOverflow:sum(packetBytes) 0
attr interpolationmode none
attr source packetDropReasonIsQueueOverflow(packetDropped)
attr title "packet drops: queue overflow, sum(packetBytes)"
scalar IEEE80211_AdHoc_Vadere.hostMobile[2].wlan[0].mac.dcf.channelAccess.pendingQueue packetRemoved:count 0
attr interpolationmode none
attr title "packets removed, count"
scalar IEEE80211_AdHoc_Vadere.hostMobile[2].wlan[0].mac.dcf.channelAccess.pendingQueue packetRemoved:sum(packetBytes) 0
attr interpolationmode none
attr title "packets removed, sum(packetBytes)"
scalar IEEE80211_AdHoc_Vadere.hostMobile[2].wlan[0].mac.dcf.channelAccess.inProgressFrames queueLength:max 1
attr interpolationmode sample-hold
attr source "count(packetEnqueued) - count(packetDequeued)"
attr title "queue length, max"
scalar IEEE80211_AdHoc_Vadere.hostMobile[2].wlan[0].mac.dcf.channelAccess.inProgressFrames queueLength:timeavg 5.0016427398837e-05
attr interpolationmode sample-hold
attr source "count(packetEnqueued) - count(packetDequeued)"
attr title "queue length, timeavg"
scalar IEEE80211_AdHoc_Vadere.hostMobile[2].wlan[0].mac.dcf.channelAccess.contention channelAccessGranted:count 64
attr title "channel access granted, count"
scalar IEEE80211_AdHoc_Vadere.hostMobile[2].wlan[0].mac.dcf.channelAccess.contention stateChanged:count 45000
attr interpolationmode none
attr title "contention state changed, count"
scalar IEEE80211_AdHoc_Vadere.hostMobile[2].wlan[0].mac.dcf.channelAccess channelOwnershipChanged:count 128
attr interpolationmode sample-hold
attr title "channel ownership, count"
scalar IEEE80211_AdHoc_Vadere.hostMobile[2].wlan[0].mac.dcf.originatorMacDataService packetAggregated:count 0
attr title "packets aggregated, count"
scalar IEEE80211_AdHoc_Vadere.hostMobile[2].wlan[0].mac.dcf.originatorMacDataService packetFragmented:count 0
attr title "packets fragmented, count"
scalar IEEE80211_AdHoc_Vadere.hostMobile[2].wlan[0].mac.dcf.recipientMacDataService packetDeaggregated:count 0
attr title "packets deaggregated, count"
scalar IEEE80211_AdHoc_Vadere.hostMobile[2].wlan[0].mac.dcf.recipientMacDataService packetDefragmented:count 84
attr title "packets defragmented, count"
scalar IEEE80211_AdHoc_Vadere.hostMobile[2].wlan[0].mac.dcf.recipientMacDataService packetDropDuplicateDetected:count 0
attr interpolationmode none
attr source packetDropReasonIsDuplicateDetected(packetDropped)
attr title "packet drops: duplicate detected, count"
scalar IEEE80211_AdHoc_Vadere.hostMobile[2].wlan[0].mac.dcf.recipientMacDataService packetDropDuplicateDetected:sum(packetBytes) 0
attr interpolationmode none
attr source packetDropReasonIsDuplicateDetected(packetDropped)
attr title "packet drops: duplicate detected, sum(packetBytes)"
scalar IEEE80211_AdHoc_Vadere.hostMobile[2].wlan[0].mac.dcf.recoveryProcedure retryLimitReached:count 0
attr title "retry limit reached, count"
scalar IEEE80211_AdHoc_Vadere.hostMobile[2].wlan[0].mac.dcf frameSequenceFinished:count 64
attr title "finished frame sequences, count"
scalar IEEE80211_AdHoc_Vadere.hostMobile[2].wlan[0].mac.dcf packetReceivedFromPeer:count 85
attr interpolationmode none
attr title "packets received, count"
scalar IEEE80211_AdHoc_Vadere.hostMobile[2].wlan[0].mac.dcf packetReceivedFromPeer:sum(packetBytes) 7676
attr interpolationmode none
attr title "packets received, sum(packetBytes)"
scalar IEEE80211_AdHoc_Vadere.hostMobile[2].wlan[0].mac.dcf packetReceivedFromPeerUnicast:count 0
attr interpolationmode none
attr source ieee80211Unicast(packetReceivedFromPeer)
attr title "packets received: unicast, count"
scalar IEEE80211_AdHoc_Vadere.hostMobile[2].wlan[0].mac.dcf packetReceivedFromPeerUnicast:sum(packetBytes) 0
attr interpolationmode none
attr source ieee80211Unicast(packetReceivedFromPeer)
attr title "packets received: unicast, sum(packetBytes)"
scalar IEEE80211_AdHoc_Vadere.hostMobile[2].wlan[0].mac.dcf packetReceivedFromPeerMulticast:count 85
attr interpolationmode none
attr source ieee80211Multicast(packetReceivedFromPeer)
attr title "packets received: multicast, count"
scalar IEEE80211_AdHoc_Vadere.hostMobile[2].wlan[0].mac.dcf packetReceivedFromPeerMulticast:sum(packetBytes) 7676
attr interpolationmode none
attr source ieee80211Multicast(packetReceivedFromPeer)
attr title "packets received: multicast, sum(packetBytes)"
scalar IEEE80211_AdHoc_Vadere.hostMobile[2].wlan[0].mac.dcf packetReceivedFromPeerBroadcast:count 83
attr interpolationmode none
attr source ieee80211Broadcast(packetReceivedFromPeer)
attr title "packets received: broadcast, count"
scalar IEEE80211_AdHoc_Vadere.hostMobile[2].wlan[0].mac.dcf packetReceivedFromPeerBroadcast:sum(packetBytes) 5312
attr interpolationmode none
attr source ieee80211Broadcast(packetReceivedFromPeer)
attr title "packets received: broadcast, sum(packetBytes)"
scalar IEEE80211_AdHoc_Vadere.hostMobile[2].wlan[0].mac.dcf packetReceivedFromPeerWithRetry:count 0
attr interpolationmode none
attr source ieee80211Retry(packetReceivedFromPeer)
attr title "packets received: with retry, count"
scalar IEEE80211_AdHoc_Vadere.hostMobile[2].wlan[0].mac.dcf packetReceivedFromPeerWithRetry:sum(packetBytes) 0
attr interpolationmode none
attr source ieee80211Retry(packetReceivedFromPeer)
attr title "packets received: with retry, sum(packetBytes)"
scalar IEEE80211_AdHoc_Vadere.hostMobile[2].wlan[0].mac.dcf packetReceivedFromPeerWithoutRetry:count 85
attr interpolationmode none
attr source ieee80211NotRetry(packetReceivedFromPeer)
attr title "packets received: without retry, count"
scalar IEEE80211_AdHoc_Vadere.hostMobile[2].wlan[0].mac.dcf packetReceivedFromPeerWithoutRetry:sum(packetBytes) 7676
attr interpolationmode none
attr source ieee80211NotRetry(packetReceivedFromPeer)
attr title "packets received: without retry, sum(packetBytes)"
scalar IEEE80211_AdHoc_Vadere.hostMobile[2].wlan[0].mac.dcf packetSentToPeer:count 64
attr interpolationmode none
attr title "packets sent, count"
scalar IEEE80211_AdHoc_Vadere.hostMobile[2].wlan[0].mac.dcf packetSentToPeer:sum(packetBytes) 4096
attr interpolationmode none
attr title "packets sent, sum(packetBytes)"
scalar IEEE80211_AdHoc_Vadere.hostMobile[2].wlan[0].mac.dcf packetSentToPeerUnicast:count 0
attr interpolationmode none
attr source ieee80211Unicast(packetSentToPeer)
attr title "packets sent: unicast, count"
scalar IEEE80211_AdHoc_Vadere.hostMobile[2].wlan[0].mac.dcf packetSentToPeerUnicast:sum(packetBytes) 0
attr interpolationmode none
attr source ieee80211Unicast(packetSentToPeer)
attr title "packets sent: unicast, sum(packetBytes)"
scalar IEEE80211_AdHoc_Vadere.hostMobile[2].wlan[0].mac.dcf packetSentToPeerMulticast:count 64
attr interpolationmode none
attr source ieee80211Multicast(packetSentToPeer)
attr title "packets sent: multicast, count"
scalar IEEE80211_AdHoc_Vadere.hostMobile[2].wlan[0].mac.dcf packetSentToPeerMulticast:sum(packetBytes) 4096
attr interpolationmode none
attr source ieee80211Multicast(packetSentToPeer)
attr title "packets sent: multicast, sum(packetBytes)"
scalar IEEE80211_AdHoc_Vadere.hostMobile[2].wlan[0].mac.dcf packetSentToPeerBroadcast:count 64
attr interpolationmode none
attr source ieee80211Broadcast(packetSentToPeer)
attr title "packets sent: broadcast , count"
scalar IEEE80211_AdHoc_Vadere.hostMobile[2].wlan[0].mac.dcf packetSentToPeerBroadcast:sum(packetBytes) 4096
attr interpolationmode none
attr source ieee80211Broadcast(packetSentToPeer)
attr title "packets sent: broadcast , sum(packetBytes)"
scalar IEEE80211_AdHoc_Vadere.hostMobile[2].wlan[0].mac.dcf packetSentToPeerWithRetry:count 0
attr interpolationmode none
attr source ieee80211Retry(packetSentToPeer)
attr title "packets sent: with retry, count"
scalar IEEE80211_AdHoc_Vadere.hostMobile[2].wlan[0].mac.dcf packetSentToPeerWithRetry:sum(packetBytes) 0
attr interpolationmode none
attr source ieee80211Retry(packetSentToPeer)
attr title "packets sent: with retry, sum(packetBytes)"
scalar IEEE80211_AdHoc_Vadere.hostMobile[2].wlan[0].mac.dcf packetSentToPeerWithoutRetry:count 64
attr interpolationmode none
attr source ieee80211NotRetry(packetSentToPeer)
attr title "packets sent: without retry, count"
scalar IEEE80211_AdHoc_Vadere.hostMobile[2].wlan[0].mac.dcf packetSentToPeerWithoutRetry:sum(packetBytes) 4096
attr interpolationmode none
attr source ieee80211NotRetry(packetSentToPeer)
attr title "packets sent: without retry, sum(packetBytes)"
scalar IEEE80211_AdHoc_Vadere.hostMobile[2].wlan[0].mac.dcf packetDrop:count 6339
attr interpolationmode none
attr source packetDropped
attr title "packet drops, count"
scalar IEEE80211_AdHoc_Vadere.hostMobile[2].wlan[0].mac.dcf packetDrop:sum(packetBytes) 7158452
attr interpolationmode none
attr source packetDropped
attr title "packet drops, sum(packetBytes)"
scalar IEEE80211_AdHoc_Vadere.hostMobile[2].wlan[0].mac.dcf packetDropNotAddressedToUs:count 6339
attr interpolationmode none
attr source packetDropReasonIsNotAddressedToUs(packetDropped)
attr title "packet drops: not addressed to us, count"
scalar IEEE80211_AdHoc_Vadere.hostMobile[2].wlan[0].mac.dcf packetDropNotAddressedToUs:sum(packetBytes) 7158452
attr interpolationmode none
attr source packetDropReasonIsNotAddressedToUs(packetDropped)
attr title "packet drops: not addressed to us, sum(packetBytes)"
scalar IEEE80211_AdHoc_Vadere.hostMobile[2].wlan[0].mac.dcf packetDropQueueOverflow:count 0
attr interpolationmode none
attr source packetDropReasonIsQueueOverflow(packetDropped)
attr title "packet drops: queue overflow, count"
scalar IEEE80211_AdHoc_Vadere.hostMobile[2].wlan[0].mac.dcf packetDropQueueOverflow:sum(packetBytes) 0
attr interpolationmode none
attr source packetDropReasonIsQueueOverflow(packetDropped)
attr title "packet drops: queue overflow, sum(packetBytes)"
scalar IEEE80211_AdHoc_Vadere.hostMobile[2].wlan[0].mac.dcf packetDropRetryLimitReached:count 0
attr interpolationmode none
attr source packetDropReasonIsRetryLimitReached(packetDropped)
attr title "packet drops: retry limit reached, count"
scalar IEEE80211_AdHoc_Vadere.hostMobile[2].wlan[0].mac.dcf packetDropRetryLimitReached:sum(packetBytes) 0
attr interpolationmode none
attr source packetDropReasonIsRetryLimitReached(packetDropped)
attr title "packet drops: retry limit reached, sum(packetBytes)"
scalar IEEE80211_AdHoc_Vadere.hostMobile[2].wlan[0].mac.dcf linkBroken:count 0
attr interpolationmode none
attr title "link breaks, count"
scalar IEEE80211_AdHoc_Vadere.hostMobile[2].wlan[0].mac packetReceivedFromLower:count 6431
attr interpolationmode none
attr title "packets received from lower layer, count"
scalar IEEE80211_AdHoc_Vadere.hostMobile[2].wlan[0].mac packetReceivedFromLower:sum(packetBytes) 7172038
attr interpolationmode none
attr title "packets received from lower layer, sum(packetBytes)"
scalar IEEE80211_AdHoc_Vadere.hostMobile[2].wlan[0].mac packetSentToLower:count 64
attr interpolationmode none
attr title "packets sent to lower layer, count"
scalar IEEE80211_AdHoc_Vadere.hostMobile[2].wlan[0].mac packetSentToLower:sum(packetBytes) 4096
attr interpolationmode none
attr title "packets sent to lower layer, sum(packetBytes)"
scalar IEEE80211_AdHoc_Vadere.hostMobile[2].wlan[0].mac packetReceivedFromUpper:count 64
attr interpolationmode none
attr title "packets received from upper layer, count"
scalar IEEE80211_AdHoc_Vadere.hostMobile[2].wlan[0].mac packetReceivedFromUpper:sum(packetBytes) 2304
attr interpolationmode none
attr title "packets received from upper layer, sum(packetBytes)"
scalar IEEE80211_AdHoc_Vadere.hostMobile[2].wlan[0].mac packetSentToUpper:count 84
attr interpolationmode none
attr title "packets sent to upper layer, count"
scalar IEEE80211_AdHoc_Vadere.hostMobile[2].wlan[0].mac packetSentToUpper:sum(packetBytes) 5296
attr interpolationmode none
attr title "packets sent to upper layer, sum(packetBytes)"
scalar IEEE80211_AdHoc_Vadere.hostMobile[2].wlan[0].mac packetDrop:count 6346
attr interpolationmode none
attr source packetDropped
attr title "packet drops, count"
scalar IEEE80211_AdHoc_Vadere.hostMobile[2].wlan[0].mac packetDrop:sum(packetBytes) 7164362
attr interpolationmode none
attr source packetDropped
attr title "packet drops, sum(packetBytes)"
scalar IEEE80211_AdHoc_Vadere.hostMobile[2].wlan[0].mac packetDropIncorrectlyReceived:count 7
attr interpolationmode none
attr source packetDropReasonIsIncorrectlyReceived(packetDropped)
attr title "packet drops: incorrectly received, count"
scalar IEEE80211_AdHoc_Vadere.hostMobile[2].wlan[0].mac packetDropIncorrectlyReceived:sum(packetBytes) 5910
attr interpolationmode none
attr source packetDropReasonIsIncorrectlyReceived(packetDropped)
attr title "packet drops: incorrectly received, sum(packetBytes)"
scalar IEEE80211_AdHoc_Vadere.hostMobile[2].wlan[0].mac packetDropNotAddressedToUs:count 6339
attr interpolationmode none
attr source packetDropReasonIsNotAddressedToUs(packetDropped)
attr title "packet drops: not addressed to us, count"
scalar IEEE80211_AdHoc_Vadere.hostMobile[2].wlan[0].mac packetDropNotAddressedToUs:sum(packetBytes) 7158452
attr interpolationmode none
attr source packetDropReasonIsNotAddressedToUs(packetDropped)
attr title "packet drops: not addressed to us, sum(packetBytes)"
scalar IEEE80211_AdHoc_Vadere.hostMobile[2].wlan[0].mac packetDropQueueOverflow:count 0
attr interpolationmode none
attr source packetDropReasonIsQueueOverflow(packetDropped)
attr title "packet drops: queue overflow, count"
scalar IEEE80211_AdHoc_Vadere.hostMobile[2].wlan[0].mac packetDropQueueOverflow:sum(packetBytes) 0
attr interpolationmode none
attr source packetDropReasonIsQueueOverflow(packetDropped)
attr title "packet drops: queue overflow, sum(packetBytes)"
scalar IEEE80211_AdHoc_Vadere.hostMobile[2].wlan[0].mac packetDropRetryLimitReached:count 0
attr interpolationmode none
attr source packetDropReasonIsRetryLimitReached(packetDropped)
attr title "packet drops: retry limit reached, count"
scalar IEEE80211_AdHoc_Vadere.hostMobile[2].wlan[0].mac packetDropRetryLimitReached:sum(packetBytes) 0
attr interpolationmode none
attr source packetDropReasonIsRetryLimitReached(packetDropped)
attr title "packet drops: retry limit reached, sum(packetBytes)"
scalar IEEE80211_AdHoc_Vadere.hostMobile[2].wlan[0].mac packetDropDuplicateDetected:count 0
attr interpolationmode none
attr source packetDropReasonIsDuplicateDetected(packetDropped)
attr title "packet drops: duplicate detected, count"
scalar IEEE80211_AdHoc_Vadere.hostMobile[2].wlan[0].mac packetDropDuplicateDetected:sum(packetBytes) 0
attr interpolationmode none
attr source packetDropReasonIsDuplicateDetected(packetDropped)
attr title "packet drops: duplicate detected, sum(packetBytes)"
scalar IEEE80211_AdHoc_Vadere.hostMobile[2].wlan[0].mac packetDropOther:count 0
attr interpolationmode none
attr source packetDropReasonIsOther(packetDropped)
attr title "packet drops: other, count"
scalar IEEE80211_AdHoc_Vadere.hostMobile[2].wlan[0].mac packetDropOther:sum(packetBytes) 0
attr interpolationmode none
attr source packetDropReasonIsOther(packetDropped)
attr title "packet drops: other, sum(packetBytes)"
scalar IEEE80211_AdHoc_Vadere.hostMobile[2].wlan[0].mac linkBroken:count 0
attr interpolationmode none
attr title "link breaks, count"
scalar IEEE80211_AdHoc_Vadere.hostMobile[2].wlan[0].radio radioMode:count 131
attr interpolationmode sample-hold
attr source radioModeChanged
attr title "Radio mode, count"
scalar IEEE80211_AdHoc_Vadere.hostMobile[2].wlan[0].radio receptionState:count 13055
attr interpolationmode sample-hold
attr source receptionStateChanged
attr title "Radio reception state, count"
scalar IEEE80211_AdHoc_Vadere.hostMobile[2].wlan[0].radio transmissionState:count 256
attr interpolationmode sample-hold
attr source transmissionStateChanged
attr title "Radio transmission state, count"
scalar IEEE80211_AdHoc_Vadere.hostMobile[2].ipv4.ip packetDropAddressResolutionFailed:count 6314
attr interpolationmode none
attr source packetDropReasonIsAddressResolutionFailed(packetDropped)
attr title "packet drop: address resolution failed, count"
scalar IEEE80211_AdHoc_Vadere.hostMobile[2].ipv4.ip packetDropAddressResolutionFailed:sum(packetBytes) 9657263
attr interpolationmode none
attr source packetDropReasonIsAddressResolutionFailed(packetDropped)
attr title "packet drop: address resolution failed, sum(packetBytes)"
scalar IEEE80211_AdHoc_Vadere.hostMobile[2].ipv4.ip packetDropHopLimitReached:count 0
attr interpolationmode none
attr source packetDropReasonIsHopLimitReached(packetDropped)
attr title "packet drop: hop limit reached, count"
scalar IEEE80211_AdHoc_Vadere.hostMobile[2].ipv4.ip packetDropHopLimitReached:sum(packetBytes) 0
attr interpolationmode none
attr source packetDropReasonIsHopLimitReached(packetDropped)
attr title "packet drop: hop limit reached, sum(packetBytes)"
scalar IEEE80211_AdHoc_Vadere.hostMobile[2].ipv4.ip packetDropForwardingDisabled:count 0
attr interpolationmode none
attr source packetDropReasonIsForwardingDisabled(packetDropped)
attr title "packet drop: forwarding disabled, count"
scalar IEEE80211_AdHoc_Vadere.hostMobile[2].ipv4.ip packetDropForwardingDisabled:sum(packetBytes) 0
attr interpolationmode none
attr source packetDropReasonIsForwardingDisabled(packetDropped)
[...]
attr title "packets received: unicast, count"
scalar IEEE80211_AdHoc_Vadere.hostMobile[8].wlan[0].mac.dcf packetReceivedFromPeerUnicast:sum(packetBytes) 82930
attr interpolationmode none
attr source ieee80211Unicast(packetReceivedFromPeer)
attr title "packets received: unicast, sum(packetBytes)"
scalar IEEE80211_AdHoc_Vadere.hostMobile[8].wlan[0].mac.dcf packetReceivedFromPeerMulticast:count 385
attr interpolationmode none
attr source ieee80211Multicast(packetReceivedFromPeer)
attr title "packets received: multicast, count"
scalar IEEE80211_AdHoc_Vadere.hostMobile[8].wlan[0].mac.dcf packetReceivedFromPeerMulticast:sum(packetBytes) 367100
attr interpolationmode none
attr source ieee80211Multicast(packetReceivedFromPeer)
attr title "packets received: multicast, sum(packetBytes)"
scalar IEEE80211_AdHoc_Vadere.hostMobile[8].wlan[0].mac.dcf packetReceivedFromPeerBroadcast:count 28
attr interpolationmode none
attr source ieee80211Broadcast(packetReceivedFromPeer)
attr title "packets received: broadcast, count"
scalar IEEE80211_AdHoc_Vadere.hostMobile[8].wlan[0].mac.dcf packetReceivedFromPeerBroadcast:sum(packetBytes) 1792
attr interpolationmode none
attr source ieee80211Broadcast(packetReceivedFromPeer)
attr title "packets received: broadcast, sum(packetBytes)"
scalar IEEE80211_AdHoc_Vadere.hostMobile[8].wlan[0].mac.dcf packetReceivedFromPeerWithRetry:count 0
attr interpolationmode none
attr source ieee80211Retry(packetReceivedFromPeer)
attr title "packets received: with retry, count"
scalar IEEE80211_AdHoc_Vadere.hostMobile[8].wlan[0].mac.dcf packetReceivedFromPeerWithRetry:sum(packetBytes) 0
attr interpolationmode none
attr source ieee80211Retry(packetReceivedFromPeer)
attr title "packets received: with retry, sum(packetBytes)"
scalar IEEE80211_AdHoc_Vadere.hostMobile[8].wlan[0].mac.dcf packetReceivedFromPeerWithoutRetry:count 6305
attr interpolationmode none
attr source ieee80211NotRetry(packetReceivedFromPeer)
attr title "packets received: without retry, count"
scalar IEEE80211_AdHoc_Vadere.hostMobile[8].wlan[0].mac.dcf packetReceivedFromPeerWithoutRetry:sum(packetBytes) 450030
attr interpolationmode none
attr source ieee80211NotRetry(packetReceivedFromPeer)
attr title "packets received: without retry, sum(packetBytes)"
scalar IEEE80211_AdHoc_Vadere.hostMobile[8].wlan[0].mac.dcf packetSentToPeer:count 9117
attr interpolationmode none
attr title "packets sent, count"
scalar IEEE80211_AdHoc_Vadere.hostMobile[8].wlan[0].mac.dcf packetSentToPeer:sum(packetBytes) 9853759
attr interpolationmode none
attr title "packets sent, sum(packetBytes)"
scalar IEEE80211_AdHoc_Vadere.hostMobile[8].wlan[0].mac.dcf packetSentToPeerUnicast:count 8982
attr interpolationmode none
attr source ieee80211Unicast(packetSentToPeer)
attr title "packets sent: unicast, count"
scalar IEEE80211_AdHoc_Vadere.hostMobile[8].wlan[0].mac.dcf packetSentToPeerUnicast:sum(packetBytes) 9715775
attr interpolationmode none
attr source ieee80211Unicast(packetSentToPeer)
attr title "packets sent: unicast, sum(packetBytes)"
scalar IEEE80211_AdHoc_Vadere.hostMobile[8].wlan[0].mac.dcf packetSentToPeerMulticast:count 135
attr interpolationmode none
attr source ieee80211Multicast(packetSentToPeer)
attr title "packets sent: multicast, count"
scalar IEEE80211_AdHoc_Vadere.hostMobile[8].wlan[0].mac.dcf packetSentToPeerMulticast:sum(packetBytes) 137984
attr interpolationmode none
attr source ieee80211Multicast(packetSentToPeer)
attr title "packets sent: multicast, sum(packetBytes)"
scalar IEEE80211_AdHoc_Vadere.hostMobile[8].wlan[0].mac.dcf packetSentToPeerBroadcast:count 4
attr interpolationmode none
attr source ieee80211Broadcast(packetSentToPeer)
attr title "packets sent: broadcast , count"
scalar IEEE80211_AdHoc_Vadere.hostMobile[8].wlan[0].mac.dcf packetSentToPeerBroadcast:sum(packetBytes) 256
attr interpolationmode none
attr source ieee80211Broadcast(packetSentToPeer)
attr title "packets sent: broadcast , sum(packetBytes)"
scalar IEEE80211_AdHoc_Vadere.hostMobile[8].wlan[0].mac.dcf packetSentToPeerWithRetry:count 2760
attr interpolationmode none
attr source ieee80211Retry(packetSentToPeer)
attr title "packets sent: with retry, count"
scalar IEEE80211_AdHoc_Vadere.hostMobile[8].wlan[0].mac.dcf packetSentToPeerWithRetry:sum(packetBytes) 3146988
attr interpolationmode none
attr source ieee80211Retry(packetSentToPeer)
attr title "packets sent: with retry, sum(packetBytes)"
scalar IEEE80211_AdHoc_Vadere.hostMobile[8].wlan[0].mac.dcf packetSentToPeerWithoutRetry:count 6357
attr interpolationmode none
attr source ieee80211NotRetry(packetSentToPeer)
attr title "packets sent: without retry, count"
scalar IEEE80211_AdHoc_Vadere.hostMobile[8].wlan[0].mac.dcf packetSentToPeerWithoutRetry:sum(packetBytes) 6706771
attr interpolationmode none
attr source ieee80211NotRetry(packetSentToPeer)
attr title "packets sent: without retry, sum(packetBytes)"
scalar IEEE80211_AdHoc_Vadere.hostMobile[8].wlan[0].mac.dcf packetDrop:count 55881
attr interpolationmode none
attr source packetDropped
attr title "packet drops, count"
scalar IEEE80211_AdHoc_Vadere.hostMobile[8].wlan[0].mac.dcf packetDrop:sum(packetBytes) 28425312
attr interpolationmode none
attr source packetDropped
attr title "packet drops, sum(packetBytes)"
scalar IEEE80211_AdHoc_Vadere.hostMobile[8].wlan[0].mac.dcf packetDropNotAddressedToUs:count 53137
attr interpolationmode none
attr source packetDropReasonIsNotAddressedToUs(packetDropped)
attr title "packet drops: not addressed to us, count"
scalar IEEE80211_AdHoc_Vadere.hostMobile[8].wlan[0].mac.dcf packetDropNotAddressedToUs:sum(packetBytes) 24397624
attr interpolationmode none
attr source packetDropReasonIsNotAddressedToUs(packetDropped)
attr title "packet drops: not addressed to us, sum(packetBytes)"
scalar IEEE80211_AdHoc_Vadere.hostMobile[8].wlan[0].mac.dcf packetDropQueueOverflow:count 2443
attr interpolationmode none
attr source packetDropReasonIsQueueOverflow(packetDropped)
attr title "packet drops: queue overflow, count"
scalar IEEE80211_AdHoc_Vadere.hostMobile[8].wlan[0].mac.dcf packetDropQueueOverflow:sum(packetBytes) 3692486
attr interpolationmode none
attr source packetDropReasonIsQueueOverflow(packetDropped)
attr title "packet drops: queue overflow, sum(packetBytes)"
scalar IEEE80211_AdHoc_Vadere.hostMobile[8].wlan[0].mac.dcf packetDropRetryLimitReached:count 301
attr interpolationmode none
attr source packetDropReasonIsRetryLimitReached(packetDropped)
attr title "packet drops: retry limit reached, count"
scalar IEEE80211_AdHoc_Vadere.hostMobile[8].wlan[0].mac.dcf packetDropRetryLimitReached:sum(packetBytes) 335202
attr interpolationmode none
attr source packetDropReasonIsRetryLimitReached(packetDropped)
attr title "packet drops: retry limit reached, sum(packetBytes)"
scalar IEEE80211_AdHoc_Vadere.hostMobile[8].wlan[0].mac.dcf linkBroken:count 301
attr interpolationmode none
attr title "link breaks, count"
scalar IEEE80211_AdHoc_Vadere.hostMobile[8].wlan[0].mac packetReceivedFromLower:count 59917
attr interpolationmode none
attr title "packets received from lower layer, count"
scalar IEEE80211_AdHoc_Vadere.hostMobile[8].wlan[0].mac packetReceivedFromLower:sum(packetBytes) 24919775
attr interpolationmode none
attr title "packets received from lower layer, sum(packetBytes)"
scalar IEEE80211_AdHoc_Vadere.hostMobile[8].wlan[0].mac packetSentToLower:count 9117
attr interpolationmode none
attr title "packets sent to lower layer, count"
scalar IEEE80211_AdHoc_Vadere.hostMobile[8].wlan[0].mac packetSentToLower:sum(packetBytes) 9853759
attr interpolationmode none
attr title "packets sent to lower layer, sum(packetBytes)"
scalar IEEE80211_AdHoc_Vadere.hostMobile[8].wlan[0].mac packetReceivedFromUpper:count 6758
attr interpolationmode none
attr title "packets received from upper layer, count"
scalar IEEE80211_AdHoc_Vadere.hostMobile[8].wlan[0].mac packetReceivedFromUpper:sum(packetBytes) 10383671
attr interpolationmode none
attr title "packets received from upper layer, sum(packetBytes)"
scalar IEEE80211_AdHoc_Vadere.hostMobile[8].wlan[0].mac packetSentToUpper:count 257
attr interpolationmode none
attr title "packets sent to upper layer, count"
scalar IEEE80211_AdHoc_Vadere.hostMobile[8].wlan[0].mac packetSentToUpper:sum(packetBytes) 334820
attr interpolationmode none
attr title "packets sent to upper layer, sum(packetBytes)"
scalar IEEE80211_AdHoc_Vadere.hostMobile[8].wlan[0].mac packetDrop:count 56307
attr interpolationmode none
attr source packetDropped
attr title "packet drops, count"
scalar IEEE80211_AdHoc_Vadere.hostMobile[8].wlan[0].mac packetDrop:sum(packetBytes) 28495966
attr interpolationmode none
attr source packetDropped
attr title "packet drops, sum(packetBytes)"
scalar IEEE80211_AdHoc_Vadere.hostMobile[8].wlan[0].mac packetDropIncorrectlyReceived:count 426
attr interpolationmode none
attr source packetDropReasonIsIncorrectlyReceived(packetDropped)
attr title "packet drops: incorrectly received, count"
scalar IEEE80211_AdHoc_Vadere.hostMobile[8].wlan[0].mac packetDropIncorrectlyReceived:sum(packetBytes) 70654
attr interpolationmode none
attr source packetDropReasonIsIncorrectlyReceived(packetDropped)
attr title "packet drops: incorrectly received, sum(packetBytes)"
scalar IEEE80211_AdHoc_Vadere.hostMobile[8].wlan[0].mac packetDropNotAddressedToUs:count 53137
attr interpolationmode none
attr source packetDropReasonIsNotAddressedToUs(packetDropped)
attr title "packet drops: not addressed to us, count"
scalar IEEE80211_AdHoc_Vadere.hostMobile[8].wlan[0].mac packetDropNotAddressedToUs:sum(packetBytes) 24397624
attr interpolationmode none
attr source packetDropReasonIsNotAddressedToUs(packetDropped)
attr title "packet drops: not addressed to us, sum(packetBytes)"
scalar IEEE80211_AdHoc_Vadere.hostMobile[8].wlan[0].mac packetDropQueueOverflow:count 2443
attr interpolationmode none
attr source packetDropReasonIsQueueOverflow(packetDropped)
attr title "packet drops: queue overflow, count"
scalar IEEE80211_AdHoc_Vadere.hostMobile[8].wlan[0].mac packetDropQueueOverflow:sum(packetBytes) 3692486
attr interpolationmode none
attr source packetDropReasonIsQueueOverflow(packetDropped)
attr title "packet drops: queue overflow, sum(packetBytes)"
scalar IEEE80211_AdHoc_Vadere.hostMobile[8].wlan[0].mac packetDropRetryLimitReached:count 301
attr interpolationmode none
attr source packetDropReasonIsRetryLimitReached(packetDropped)
attr title "packet drops: retry limit reached, count"
scalar IEEE80211_AdHoc_Vadere.hostMobile[8].wlan[0].mac packetDropRetryLimitReached:sum(packetBytes) 335202
attr interpolationmode none
attr source packetDropReasonIsRetryLimitReached(packetDropped)
attr title "packet drops: retry limit reached, sum(packetBytes)"
scalar IEEE80211_AdHoc_Vadere.hostMobile[8].wlan[0].mac packetDropDuplicateDetected:count 0
attr interpolationmode none
attr source packetDropReasonIsDuplicateDetected(packetDropped)
attr title "packet drops: duplicate detected, count"
scalar IEEE80211_AdHoc_Vadere.hostMobile[8].wlan[0].mac packetDropDuplicateDetected:sum(packetBytes) 0
attr interpolationmode none
attr source packetDropReasonIsDuplicateDetected(packetDropped)
attr title "packet drops: duplicate detected, sum(packetBytes)"
scalar IEEE80211_AdHoc_Vadere.hostMobile[8].wlan[0].mac packetDropOther:count 0
attr interpolationmode none
attr source packetDropReasonIsOther(packetDropped)
attr title "packet drops: other, count"
scalar IEEE80211_AdHoc_Vadere.hostMobile[8].wlan[0].mac packetDropOther:sum(packetBytes) 0
attr interpolationmode none
attr source packetDropReasonIsOther(packetDropped)
attr title "packet drops: other, sum(packetBytes)"
scalar IEEE80211_AdHoc_Vadere.hostMobile[8].wlan[0].mac linkBroken:count 301
attr interpolationmode none
attr title "link breaks, count"
scalar IEEE80211_AdHoc_Vadere.hostMobile[8].wlan[0].radio radioMode:count 18237
attr interpolationmode sample-hold
attr source radioModeChanged
attr title "Radio mode, count"
scalar IEEE80211_AdHoc_Vadere.hostMobile[8].wlan[0].radio receptionState:count 138626
attr interpolationmode sample-hold
attr source receptionStateChanged
attr title "Radio reception state, count"
scalar IEEE80211_AdHoc_Vadere.hostMobile[8].wlan[0].radio transmissionState:count 36468
attr interpolationmode sample-hold
attr source transmissionStateChanged
attr title "Radio transmission state, count"
scalar IEEE80211_AdHoc_Vadere.hostMobile[8].ipv4.ip packetDropAddressResolutionFailed:count 298
attr interpolationmode none
attr source packetDropReasonIsAddressResolutionFailed(packetDropped)
attr title "packet drop: address resolution failed, count"
scalar IEEE80211_AdHoc_Vadere.hostMobile[8].ipv4.ip packetDropAddressResolutionFailed:sum(packetBytes) 455791
attr interpolationmode none
attr source packetDropReasonIsAddressResolutionFailed(packetDropped)
attr title "packet drop: address resolution failed, sum(packetBytes)"
scalar IEEE80211_AdHoc_Vadere.hostMobile[8].ipv4.ip packetDropHopLimitReached:count 0
attr interpolationmode none
attr source packetDropReasonIsHopLimitReached(packetDropped)
attr title "packet drop: hop limit reached, count"
scalar IEEE80211_AdHoc_Vadere.hostMobile[8].ipv4.ip packetDropHopLimitReached:sum(packetBytes) 0
attr interpolationmode none
attr source packetDropReasonIsHopLimitReached(packetDropped)
attr title "packet drop: hop limit reached, sum(packetBytes)"
scalar IEEE80211_AdHoc_Vadere.hostMobile[8].ipv4.ip packetDropForwardingDisabled:count 0
attr interpolationmode none
attr source packetDropReasonIsForwardingDisabled(packetDropped)
attr title "packet drop: forwarding disabled, count"
scalar IEEE80211_AdHoc_Vadere.hostMobile[8].ipv4.ip packetDropForwardingDisabled:sum(packetBytes) 0
attr interpolationmode none
attr source packetDropReasonIsForwardingDisabled(packetDropped)
attr title "packet drop: forwarding disabled, sum(packetBytes)"
scalar IEEE80211_AdHoc_Vadere.hostMobile[8].ipv4.ip packetDropNoInterfaceFound:count 0
attr interpolationmode none
attr source packetDropReasonIsNoInterfaceFound(packetDropped)
attr title "packet drop: no interface found, count"
scalar IEEE80211_AdHoc_Vadere.hostMobile[8].ipv4.ip packetDropNoInterfaceFound:sum(packetBytes) 0
attr interpolationmode none
attr source packetDropReasonIsNoInterfaceFound(packetDropped)
attr title "packet drop: no interface found, sum(packetBytes)"
scalar IEEE80211_AdHoc_Vadere.hostMobile[8].ipv4.ip packetDropNoRouteFound:count 0
attr interpolationmode none
attr source packetDropReasonIsNoRouteFound(packetDropped)
attr title "packet drop: no route found, count"
scalar IEEE80211_AdHoc_Vadere.hostMobile[8].ipv4.ip packetDropNoRouteFound:sum(packetBytes) 0
attr interpolationmode none
attr source packetDropReasonIsNoRouteFound(packetDropped)
attr title "packet drop: no route found, sum(packetBytes)"
scalar IEEE80211_AdHoc_Vadere.hostMobile[8].ipv4.ip packetDropUndefined:count 0
attr interpolationmode none
attr source packetDropReasonIsUndefined(packetDropped)
attr title "packet drop: undefined, count"
scalar IEEE80211_AdHoc_Vadere.hostMobile[8].ipv4.ip packetDropUndefined:sum(packetBytes) 0
attr interpolationmode none
attr source packetDropReasonIsUndefined(packetDropped)
attr title "packet drop: undefined, sum(packetBytes)"
scalar IEEE80211_AdHoc_Vadere.hostMobile[8].ipv4.arp arpResolutionFailed:count 1
attr title "ARP failed resolutions, count"
scalar IEEE80211_AdHoc_Vadere.hostMobile[8].ipv4.arp arpResolutionCompleted:count 1
attr title "ARP completed resolutions, count"
scalar IEEE80211_AdHoc_Vadere.hostMobile[8].ipv4.arp arpResolutionInitiated:count 2
attr title "ARP initiated resolutions, count"
scalar IEEE80211_AdHoc_Vadere.hostMobile[8].ipv4.arp arpReplySent:count 0
attr source arpReplySent
attr title "ARP replies sent, count"
scalar IEEE80211_AdHoc_Vadere.hostMobile[8].ipv4.arp arpReplySent:sum(packetBytes) 0
attr source arpReplySent
attr title "ARP replies sent, sum(packetBytes)"
scalar IEEE80211_AdHoc_Vadere.hostMobile[8].ipv4.arp arpRequestSent:count 4
attr source arpRequestSent
attr title "ARP request sent, count"
scalar IEEE80211_AdHoc_Vadere.hostMobile[8].ipv4.arp arpRequestSent:sum(packetBytes) 112
attr source arpRequestSent
attr title "ARP request sent, sum(packetBytes)"
scalar IEEE80211_AdHoc_Vadere.hostMobile[8].udp packetReceived:count 163
attr interpolationmode none
attr source packetReceived
attr title "packets received, count"
scalar IEEE80211_AdHoc_Vadere.hostMobile[8].udp packetReceived:sum(packetBytes) 490304
attr interpolationmode none
attr source packetReceived
attr title "packets received, sum(packetBytes)"
scalar IEEE80211_AdHoc_Vadere.hostMobile[8].udp packetSent:count 3526
attr interpolationmode none
attr source packetSent
attr title "packets sent, count"
scalar IEEE80211_AdHoc_Vadere.hostMobile[8].udp packetSent:sum(packetBytes) 10644246
attr interpolationmode none
attr source packetSent
attr title "packets sent, sum(packetBytes)"
scalar IEEE80211_AdHoc_Vadere.hostMobile[8].udp passedUpPk:count 163
attr interpolationmode none
attr source packetSentToUpper
attr title "packets passed up, count"
scalar IEEE80211_AdHoc_Vadere.hostMobile[8].udp droppedPkWrongPort:count 0
attr interpolationmode none
attr source packetDropReasonIsNoPortFound(packetDropped)
attr title "packets dropped (wrong port), count"
scalar IEEE80211_AdHoc_Vadere.hostMobile[8].udp droppedPkBadChecksum:count 0
attr interpolationmode none
attr source packetDropReasonIsIncorrectlyReceived(packetDropped)
attr title "packets dropped (checksum error), count"
statistic IEEE80211_AdHoc_Vadere.hostMobile[8].app[0] incidentAge:stats
field count 163
field mean 31.673303820503
field stddev 20.015398161606
field min 0.002358117502
field max 68.386696156449
field sum 5162.748522742
field sqrsum 228421.12100762
attr interpolationmode none
attr source incidentAge(packetReceived)
attr title "incidentAge, stats"
attr unit s
statistic IEEE80211_AdHoc_Vadere.hostMobile[8].app[0] lastHopAge:stats
field count 163
field mean 0.031573113553411
field stddev 0.34319218780015
field min 0
field max 4.38433807622
field sum 5.146417509206
field sqrsum 19.242990622674
attr interpolationmode none
attr source lastHopAge(packetReceived)
attr title "lastHopAge, stats"
attr unit s
scalar IEEE80211_AdHoc_Vadere.hostMobile[8].app[0] packetReceived:count 163
attr interpolationmode none
attr source packetReceived
attr title "packets received, count"
scalar IEEE80211_AdHoc_Vadere.hostMobile[8].app[0] packetReceived:sum(packetBytes) 489000
attr interpolationmode none
attr source packetReceived
attr title "packets received, sum(packetBytes)"
scalar IEEE80211_AdHoc_Vadere.hostMobile[8].app[0] packetSent:count 68
attr interpolationmode none
attr source packetSent
attr title "packets sent, count"
scalar IEEE80211_AdHoc_Vadere.hostMobile[8].app[0] packetSent:sum(packetBytes) 204000
attr interpolationmode none
attr source packetSent
attr title "packets sent, sum(packetBytes)"
scalar IEEE80211_AdHoc_Vadere.hostMobile[8].app[1] "packets sent" 3458
scalar IEEE80211_AdHoc_Vadere.hostMobile[8].app[1] "packets received" 0
scalar IEEE80211_AdHoc_Vadere.hostMobile[8].app[1] packetReceived:count 0
attr interpolationmode none
attr source packetReceived
attr title "packets received, count"
scalar IEEE80211_AdHoc_Vadere.hostMobile[8].app[1] packetReceived:sum(packetBytes) 0
attr interpolationmode none
attr source packetReceived
attr title "packets received, sum(packetBytes)"
statistic IEEE80211_AdHoc_Vadere.hostMobile[8].app[1] rcvdPkLifetime:stats
field count 0
field mean -nan
field stddev nan
field min nan
field max nan
field sum 0
field sqrsum 0
attr interpolationmode none
attr source dataAge(packetReceived)
attr title "received packet lifetime, stats"
attr unit s
scalar IEEE80211_AdHoc_Vadere.hostMobile[8].app[1] packetSent:count 3458
attr interpolationmode none
attr source packetSent
attr title "packets sent, count"
scalar IEEE80211_AdHoc_Vadere.hostMobile[8].app[1] packetSent:sum(packetBytes) 10412038
attr interpolationmode none
attr source packetSent
attr title "packets sent, sum(packetBytes)"

